data_jmwjt3_cu
_audit_creation_date               2021-03-18
_audit_creation_method
;
Olex2 1.3
(compiled 2020.11.12 svn.r5f609507 for OlexSys, GUI svn.r6272)
;
_shelx_SHELXL_version_number       '2018/3'
_audit_contact_author_address      ?
_audit_contact_author_email        ?
_audit_contact_author_name         ''
_audit_contact_author_phone        ?
_publ_contact_author_id_orcid      ?
_publ_section_references
;
Dolomanov, O.V., Bourhis, L.J., Gildea, R.J, Howard, J.A.K. & Puschmann, H.
 (2009), J. Appl. Cryst. 42, 339-341.

Sheldrick, G.M. (2015). Acta Cryst. A71, 3-8.

Sheldrick, G.M. (2015). Acta Cryst. C71, 3-8.
;
_chemical_name_common              ?
_chemical_name_systematic          ?
_chemical_formula_moiety           'C15 H13 N O2 Se, C9 H12 N2 O'
_chemical_formula_sum              'C24 H25 N3 O3 Se'
_chemical_formula_weight           482.43
_chemical_melting_point            ?
loop_
  _atom_type_symbol
  _atom_type_description
  _atom_type_scat_dispersion_real
  _atom_type_scat_dispersion_imag
  _atom_type_scat_source
 'C' 'C' 0.0181 0.0091 'International Tables Vol C Tables 4.2.6.8 and 6.1.1.4'
 'H' 'H' 0.0000 0.0000 'International Tables Vol C Tables 4.2.6.8 and 6.1.1.4'
 'N' 'N' 0.0311 0.0180 'International Tables Vol C Tables 4.2.6.8 and 6.1.1.4'
 'O' 'O' 0.0492 0.0322 'International Tables Vol C Tables 4.2.6.8 and 6.1.1.4'
 'Se' 'Se' -0.7943 1.1372
 'International Tables Vol C Tables 4.2.6.8 and 6.1.1.4'

_shelx_space_group_comment
;
The symmetry employed for this shelxl refinement is uniquely defined
by the following loop, which should always be used as a source of
symmetry information in preference to the above space-group names.
They are only intended as comments.
;
_space_group_crystal_system        'triclinic'
_space_group_IT_number             2
_space_group_name_H-M_alt          'P -1'
_space_group_name_Hall             '-P 1'
loop_
  _space_group_symop_operation_xyz
 'x, y, z'
 '-x, -y, -z'

_cell_length_a                     10.1213(3)
_cell_length_b                     12.3068(3)
_cell_length_c                     18.9297(6)
_cell_angle_alpha                  75.580(2)
_cell_angle_beta                   77.135(2)
_cell_angle_gamma                  71.395(3)
_cell_volume                       2137.77(11)
_cell_formula_units_Z              4
_cell_measurement_reflns_used      ?
_cell_measurement_temperature      293(2)
_cell_measurement_theta_max        ?
_cell_measurement_theta_min        ?
_shelx_estimated_absorpt_T_max     ?
_shelx_estimated_absorpt_T_min     ?
_exptl_absorpt_coefficient_mu      2.639
_exptl_absorpt_correction_T_max    ?
_exptl_absorpt_correction_T_min    ?
_exptl_absorpt_correction_type     ?
_exptl_absorpt_process_details     ?
_exptl_absorpt_special_details     ?
_exptl_crystal_colour              ?
_exptl_crystal_density_diffrn      1.499
_exptl_crystal_density_meas        ?
_exptl_crystal_density_method      ?
_exptl_crystal_description         ?
_exptl_crystal_F_000               992
_exptl_crystal_size_max            0.216
_exptl_crystal_size_mid            0.142
_exptl_crystal_size_min            0.079
_exptl_transmission_factor_max     ?
_exptl_transmission_factor_min     ?
_diffrn_reflns_av_R_equivalents    0.0439
_diffrn_reflns_av_unetI/netI       0.0434
_diffrn_reflns_Laue_measured_fraction_full  0.995
_diffrn_reflns_Laue_measured_fraction_max  0.971
_diffrn_reflns_limit_h_max         12
_diffrn_reflns_limit_h_min         -12
_diffrn_reflns_limit_k_max         15
_diffrn_reflns_limit_k_min         -12
_diffrn_reflns_limit_l_max         23
_diffrn_reflns_limit_l_min         -22
_diffrn_reflns_number              27505
_diffrn_reflns_point_group_measured_fraction_full  0.995
_diffrn_reflns_point_group_measured_fraction_max  0.971
_diffrn_reflns_theta_full          67.684
_diffrn_reflns_theta_max           77.448
_diffrn_reflns_theta_min           2.440
_diffrn_ambient_temperature        293(2)
_diffrn_detector_area_resol_mean   ?
_diffrn_measured_fraction_theta_full  0.995
_diffrn_measured_fraction_theta_max  0.971
_diffrn_measurement_device_type    ?
_diffrn_measurement_method         ?
_diffrn_radiation_type             CuK\a
_diffrn_radiation_wavelength       1.54184
_diffrn_source                     ?
_reflns_Friedel_coverage           0.000
_reflns_Friedel_fraction_full      .
_reflns_Friedel_fraction_max       .
_reflns_number_gt                  7842
_reflns_number_total               8820
_reflns_special_details
;
 Reflections were merged by SHELXL according to the crystal
 class for the calculation of statistics and refinement.
 
 _reflns_Friedel_fraction is defined as the number of unique
 Friedel pairs measured divided by the number that would be
 possible theoretically, ignoring centric projections and
 systematic absences.
;
_reflns_threshold_expression       'I > 2\s(I)'
_computing_cell_refinement         ?
_computing_data_collection         ?
_computing_data_reduction          ?
_computing_molecular_graphics      'Olex2 1.3 (Dolomanov et al., 2009)'
_computing_publication_material    'Olex2 1.3 (Dolomanov et al., 2009)'
_computing_structure_refinement    'SHELXL 2018/3 (Sheldrick, 2015)'
_computing_structure_solution      'SHELXT 2018/2 (Sheldrick, 2018)'
_refine_diff_density_max           3.912
_refine_diff_density_min           -3.944
_refine_diff_density_rms           0.162
_refine_ls_extinction_coef         .
_refine_ls_extinction_method       none
_refine_ls_goodness_of_fit_ref     1.145
_refine_ls_hydrogen_treatment      constr
_refine_ls_matrix_type             full
_refine_ls_number_parameters       261
_refine_ls_number_reflns           8820
_refine_ls_number_restraints       3
_refine_ls_R_factor_all            0.0973
_refine_ls_R_factor_gt             0.0923
_refine_ls_restrained_S_all        1.145
_refine_ls_shift/su_max            0.001
_refine_ls_shift/su_mean           0.000
_refine_ls_structure_factor_coef   Fsqd
_refine_ls_weighting_details      
 'w=1/[\s^2^(Fo^2^)+(0.1618P)^2^+6.0631P] where P=(Fo^2^+2Fc^2^)/3'
_refine_ls_weighting_scheme        calc
_refine_ls_wR_factor_gt            0.2609
_refine_ls_wR_factor_ref           0.2668
_refine_special_details            ?
_olex2_refinement_description
;
1. Restrained distances
 O2A-C14A \\sim O2A-C1C
 with sigma of 0.02
 O2A-C15A \\sim O2A-C1B
 with sigma of 0.04
 C14A-C15A \\sim C1C-C1B
 with sigma of 0.02
2. Others
 Sof(C1B)=Sof(H15D)=Sof(H15E)=Sof(H15F)=Sof(C1C)=Sof(H14C)=Sof(H14D)=1-FVAR(1)
 Sof(C14A)=Sof(H14A)=Sof(H14B)=Sof(C15A)=Sof(H15A)=Sof(H15B)=Sof(H15C)=FVAR(1)
3.a Secondary CH2 refined with riding coordinates:
 C21(H21A,H21B), C14(H14E,H14F), C21A(H21C,H21D), C24(H24A,H24B), C22(H22A,
 H22B), C23(H23A,H23B), C22A(H22C,H22D), C24A(H24C,H24D), C23A(H23C,H23D),
 C14A(H14A,H14B), C1C(H14C,H14D)
3.b Aromatic/amide H refined with riding coordinates:
 C9(H9), C10(H10), C17A(H17A), C12(H12), C16A(H16A), C17(H17), C6A(H6A),
 C13(H13), C20A(H20A), C9A(H9A), C19A(H19A), C6(H6), C10A(H10A), C12A(H12A),
 C20(H20), C19(H19), C13A(H13A), C5(H5), C4(H4), C5A(H5A), C3(H3), C16(H16),
 C4A(H4A), C3A(H3A)
3.c Idealised Me refined as rotating group:
 C15(H15G,H15H,H15I), C15A(H15A,H15B,H15C), C1B(H15D,H15E,H15F)
;
_atom_sites_solution_hydrogens     geom
_atom_sites_solution_primary       dual
_atom_sites_solution_secondary     ?
loop_
  _atom_site_label
  _atom_site_type_symbol
  _atom_site_fract_x
  _atom_site_fract_y
  _atom_site_fract_z
  _atom_site_U_iso_or_equiv
  _atom_site_adp_type
  _atom_site_occupancy
  _atom_site_site_symmetry_order
  _atom_site_calc_flag
  _atom_site_refinement_flags_posn
  _atom_site_refinement_flags_adp
  _atom_site_refinement_flags_occupancy
  _atom_site_disorder_assembly
  _atom_site_disorder_group
 Se1 Se 0.64021(5) 0.10280(4) 0.08395(3) 0.02899(19) Uiso 1 1 d . . . . .
 Se1A Se 0.71306(5) 0.51024(4) 0.50163(3) 0.02929(19) Uiso 1 1 d . . . . .
 O2 O 0.7511(4) -0.0860(3) -0.2346(2) 0.0338(8) Uiso 1 1 d . . . . .
 O3 O 1.0254(4) -0.1774(3) 0.5267(2) 0.0374(8) Uiso 1 1 d . . . . .
 O1 O 0.3840(4) 0.3261(3) -0.0557(2) 0.0385(8) Uiso 1 1 d . . . . .
 O1A O 0.4777(4) 0.7605(3) 0.3611(2) 0.0403(9) Uiso 1 1 d . . . . .
 O2A O 0.8115(5) 0.3358(4) 0.1823(2) 0.0440(9) Uiso 1 1 d D . . . .
 N1 N 0.5549(4) 0.1672(3) -0.0058(2) 0.0267(8) Uiso 1 1 d . . . . .
 N3 N 0.9411(4) -0.1260(3) 0.3851(2) 0.0294(8) Uiso 1 1 d . . . . .
 N2A N 0.8088(5) 0.4358(4) 0.6148(2) 0.0316(9) Uiso 1 1 d . . . . .
 N1A N 0.6264(4) 0.5850(4) 0.4125(2) 0.0289(8) Uiso 1 1 d . . . . .
 N3A N 0.9698(5) 0.2710(4) 0.8129(3) 0.0366(9) Uiso 1 1 d . . . . .
 O3A O 1.0446(6) 0.1902(5) 0.9575(3) 0.0607(12) Uiso 1 1 d . . . . .
 N2 N 0.7368(5) 0.0364(4) 0.1999(3) 0.0367(10) Uiso 1 1 d . . . . .
 C18A C 0.9177(5) 0.3257(4) 0.7484(3) 0.0294(10) Uiso 1 1 d . . . . .
 C2 C 0.4459(5) 0.3182(4) 0.0605(3) 0.0319(10) Uiso 1 1 d . . . . .
 C9 C 0.5654(5) 0.1502(4) -0.1345(3) 0.0283(9) Uiso 1 1 d . . . . .
 H9 H 0.507554 0.226155 -0.144758 0.034 Uiso 1 1 calc R U . . .
 C18 C 0.8742(5) -0.0741(4) 0.3245(3) 0.0279(9) Uiso 1 1 d . . . . .
 C1A C 0.6118(6) 0.6523(5) 0.5338(3) 0.0327(10) Uiso 1 1 d . . . . .
 C10 C 0.6190(5) 0.0854(4) -0.1901(3) 0.0299(10) Uiso 1 1 d . . . . .
 H10 H 0.598327 0.118925 -0.237515 0.036 Uiso 1 1 calc R U . . .
 C17A C 0.7939(5) 0.3112(4) 0.7336(3) 0.0297(10) Uiso 1 1 d . . . . .
 H17A H 0.745158 0.263957 0.768559 0.036 Uiso 1 1 calc R U . . .
 C11 C 0.7041(5) -0.0300(4) -0.1755(3) 0.0294(10) Uiso 1 1 d . . . . .
 C8 C 0.5979(5) 0.1022(4) -0.0631(3) 0.0267(9) Uiso 1 1 d . . . . .
 C2A C 0.5346(6) 0.7335(5) 0.4814(3) 0.0329(10) Uiso 1 1 d . . . . .
 C8A C 0.6638(5) 0.5251(4) 0.3517(3) 0.0314(10) Uiso 1 1 d . . . . .
 C12 C 0.7365(5) -0.0779(4) -0.1049(3) 0.0303(10) Uiso 1 1 d . . . . .
 H12 H 0.794857 -0.153649 -0.094849 0.036 Uiso 1 1 calc R U . . .
 C16A C 0.7457(5) 0.3659(4) 0.6684(3) 0.0305(10) Uiso 1 1 d . . . . .
 H16A H 0.664054 0.354257 0.660672 0.037 Uiso 1 1 calc R U . . .
 C7A C 0.5413(5) 0.6966(4) 0.4115(3) 0.0329(10) Uiso 1 1 d . . . . .
 C1 C 0.5287(5) 0.2459(4) 0.1130(3) 0.0310(10) Uiso 1 1 d . . . . .
 C21 C 0.8609(5) -0.1785(4) 0.4514(3) 0.0327(10) Uiso 1 1 d . . . . .
 H21A H 0.820074 -0.230981 0.438519 0.039 Uiso 1 1 calc R U . . .
 H21B H 0.784103 -0.117494 0.470854 0.039 Uiso 1 1 calc R U . . .
 C7 C 0.4561(5) 0.2733(4) -0.0066(3) 0.0288(9) Uiso 1 1 d . . . . .
 C17 C 0.7489(5) -0.0939(4) 0.3171(3) 0.0316(10) Uiso 1 1 d . . . . .
 H17 H 0.708372 -0.144695 0.353971 0.038 Uiso 1 1 calc R U . . .
 C6A C 0.6094(6) 0.6824(5) 0.6013(3) 0.0347(11) Uiso 1 1 d . . . . .
 H6A H 0.659374 0.629104 0.637132 0.042 Uiso 1 1 calc R U . . .
 C13 C 0.6827(5) -0.0135(4) -0.0491(3) 0.0303(10) Uiso 1 1 d . . . . .
 H13 H 0.703182 -0.047566 -0.001660 0.036 Uiso 1 1 calc R U . . .
 C20A C 0.9273(6) 0.4496(5) 0.6276(3) 0.0326(10) Uiso 1 1 d . . . . .
 H20A H 0.973945 0.496418 0.590984 0.039 Uiso 1 1 calc R U . . .
 C9A C 0.7235(5) 0.4040(5) 0.3657(3) 0.0337(11) Uiso 1 1 d . . . . .
 H9A H 0.731865 0.364008 0.413879 0.040 Uiso 1 1 calc R U . . .
 C19A C 0.9834(5) 0.3989(4) 0.6913(3) 0.0320(10) Uiso 1 1 d . . . . .
 H19A H 1.065209 0.412567 0.697163 0.038 Uiso 1 1 calc R U . . .
 C6 C 0.5260(6) 0.2821(5) 0.1776(3) 0.0341(11) Uiso 1 1 d . . . . .
 H6 H 0.580888 0.234038 0.212939 0.041 Uiso 1 1 calc R U . . .
 C10A C 0.7701(6) 0.3439(5) 0.3082(3) 0.0355(11) Uiso 1 1 d . . . . .
 H10A H 0.810313 0.263414 0.317868 0.043 Uiso 1 1 calc R U . . .
 C12A C 0.6919(6) 0.5214(5) 0.2220(3) 0.0365(11) Uiso 1 1 d . . . . .
 H12A H 0.677875 0.560434 0.174275 0.044 Uiso 1 1 calc R U . . .
 C14 C 0.8283(6) -0.2078(5) -0.2198(3) 0.0349(11) Uiso 1 1 d . . . . .
 H14E H 0.773234 -0.251227 -0.181421 0.042 Uiso 1 1 calc R U . . .
 H14F H 0.916350 -0.217099 -0.203577 0.042 Uiso 1 1 calc R U . . .
 C20 C 0.8571(6) 0.0551(5) 0.2054(3) 0.0352(11) Uiso 1 1 d . . . . .
 H20 H 0.894753 0.105811 0.167083 0.042 Uiso 1 1 calc R U . . .
 C11A C 0.7576(6) 0.4024(5) 0.2357(3) 0.0366(11) Uiso 1 1 d . . . . .
 C21A C 0.8870(6) 0.2066(5) 0.8723(3) 0.0357(11) Uiso 1 1 d . . . . .
 H21C H 0.850486 0.159465 0.851661 0.043 Uiso 1 1 calc R U . . .
 H21D H 0.807367 0.261640 0.895375 0.043 Uiso 1 1 calc R U . . .
 C24 C 1.0401(6) -0.0720(5) 0.3988(3) 0.0345(10) Uiso 1 1 d . . . . .
 H24A H 0.988793 0.004283 0.410427 0.041 Uiso 1 1 calc R U . . .
 H24B H 1.107691 -0.061007 0.354323 0.041 Uiso 1 1 calc R U . . .
 C22 C 0.9512(6) -0.2452(5) 0.5101(3) 0.0339(10) Uiso 1 1 d . . . . .
 H22A H 0.891699 -0.271565 0.554695 0.041 Uiso 1 1 calc R U . . .
 H22B H 1.018200 -0.313757 0.493698 0.041 Uiso 1 1 calc R U . . .
 C19 C 0.9280(6) 0.0034(4) 0.2647(3) 0.0335(10) Uiso 1 1 d . . . . .
 H19 H 1.011403 0.019333 0.265482 0.040 Uiso 1 1 calc R U . . .
 C13A C 0.6466(6) 0.5829(5) 0.2801(3) 0.0354(11) Uiso 1 1 d . . . . .
 H13A H 0.604691 0.663148 0.270553 0.043 Uiso 1 1 calc R U . . .
 C5 C 0.4391(6) 0.3920(5) 0.1878(3) 0.0386(12) Uiso 1 1 d . . . . .
 H5 H 0.436997 0.417632 0.230435 0.046 Uiso 1 1 calc R U . . .
 C4 C 0.3562(6) 0.4636(5) 0.1363(3) 0.0407(12) Uiso 1 1 d . . . . .
 H4 H 0.297843 0.536176 0.144728 0.049 Uiso 1 1 calc R U . . .
 C5A C 0.5310(6) 0.7928(5) 0.6131(3) 0.0408(12) Uiso 1 1 d . . . . .
 H5A H 0.529020 0.813286 0.657489 0.049 Uiso 1 1 calc R U . . .
 C3 C 0.3595(6) 0.4277(5) 0.0718(3) 0.0377(11) Uiso 1 1 d . . . . .
 H3 H 0.304580 0.476223 0.036559 0.045 Uiso 1 1 calc R U . . .
 C16 C 0.6869(6) -0.0388(5) 0.2557(3) 0.0353(11) Uiso 1 1 d . . . . .
 H16 H 0.604591 -0.054286 0.252423 0.042 Uiso 1 1 calc R U . . .
 C15 C 0.8569(6) -0.2518(5) -0.2905(3) 0.0408(12) Uiso 1 1 d . . . . .
 H15G H 0.911878 -0.208456 -0.327973 0.061 Uiso 1 1 calc R U . . .
 H15H H 0.769102 -0.241917 -0.306081 0.061 Uiso 1 1 calc R U . . .
 H15I H 0.908124 -0.333130 -0.282715 0.061 Uiso 1 1 calc R U . . .
 C23 C 1.1185(6) -0.1458(5) 0.4617(3) 0.0385(11) Uiso 1 1 d . . . . .
 H23A H 1.183063 -0.216169 0.446429 0.046 Uiso 1 1 calc R U . . .
 H23B H 1.173852 -0.102579 0.472904 0.046 Uiso 1 1 calc R U . . .
 C4A C 0.4555(6) 0.8738(5) 0.5610(3) 0.0418(12) Uiso 1 1 d . . . . .
 H4A H 0.403483 0.947492 0.570404 0.050 Uiso 1 1 calc R U . . .
 C3A C 0.4580(6) 0.8441(5) 0.4944(3) 0.0383(12) Uiso 1 1 d . . . . .
 H3A H 0.408432 0.898119 0.458646 0.046 Uiso 1 1 calc R U . . .
 C22A C 0.9758(7) 0.1285(5) 0.9300(4) 0.0445(13) Uiso 1 1 d . . . . .
 H22C H 0.915995 0.093379 0.970702 0.053 Uiso 1 1 calc R U . . .
 H22D H 1.046304 0.066031 0.908597 0.053 Uiso 1 1 calc R U . . .
 C24A C 1.0547(8) 0.3239(6) 0.8399(4) 0.0549(16) Uiso 1 1 d . . . . .
 H24C H 0.993381 0.390468 0.860866 0.066 Uiso 1 1 calc R U . . .
 H24D H 1.120129 0.351771 0.798958 0.066 Uiso 1 1 calc R U . . .
 C23A C 1.1362(9) 0.2367(7) 0.8979(5) 0.0656(19) Uiso 1 1 d . . . . .
 H23C H 1.203592 0.173636 0.875717 0.079 Uiso 1 1 calc R U . . .
 H23D H 1.188430 0.274705 0.916322 0.079 Uiso 1 1 calc R U . . .
 C14A C 0.8102(12) 0.4149(11) 0.1089(6) 0.032(3) Uiso 0.456(15) 1 d D . P A 1
 H14A H 0.859263 0.472673 0.105026 0.039 Uiso 0.456(15) 1 calc R U P A 1
 H14B H 0.714370 0.454662 0.099525 0.039 Uiso 0.456(15) 1 calc R U P A 1
 C15A C 0.8866(13) 0.3327(11) 0.0563(7) 0.041(3) Uiso 0.456(15) 1 d D . P A 1
 H15A H 0.893073 0.376362 0.006587 0.061 Uiso 0.456(15) 1 calc R U P A 1
 H15B H 0.835657 0.276857 0.061000 0.061 Uiso 0.456(15) 1 calc R U P A 1
 H15C H 0.979764 0.292555 0.067828 0.061 Uiso 0.456(15) 1 calc R U P A 1
 C1B C 0.9286(11) 0.4284(9) 0.0713(6) 0.041(3) Uiso 0.544(15) 1 d D . P A 2
 H15D H 0.921825 0.463984 0.020471 0.061 Uiso 0.544(15) 1 calc R U P A 2
 H15E H 1.016368 0.368259 0.074266 0.061 Uiso 0.544(15) 1 calc R U P A 2
 H15F H 0.924673 0.486454 0.098006 0.061 Uiso 0.544(15) 1 calc R U P A 2
 C1C C 0.8072(11) 0.3754(11) 0.1045(5) 0.036(3) Uiso 0.544(15) 1 d D . P A 2
 H14C H 0.718136 0.433341 0.096317 0.044 Uiso 0.544(15) 1 calc R U P A 2
 H14D H 0.816283 0.310437 0.081713 0.044 Uiso 0.544(15) 1 calc R U P A 2

_geom_special_details
;
 All esds (except the esd in the dihedral angle between two l.s. planes)
 are estimated using the full covariance matrix.  The cell esds are taken
 into account individually in the estimation of esds in distances, angles
 and torsion angles; correlations between esds in cell parameters are only
 used when they are defined by crystal symmetry.  An approximate (isotropic)
 treatment of cell esds is used for estimating esds involving l.s. planes.
;
loop_
  _geom_bond_atom_site_label_1
  _geom_bond_atom_site_label_2
  _geom_bond_distance
  _geom_bond_site_symmetry_2
  _geom_bond_publ_flag
 Se1 N1 1.952(4) . ?
 Se1 C1 1.901(5) . ?
 Se1A N1A 1.957(4) . ?
 Se1A C1A 1.894(5) . ?
 O2 C11 1.375(6) . ?
 O2 C14 1.441(6) . ?
 O3 C22 1.412(6) . ?
 O3 C23 1.425(7) . ?
 O1 C7 1.232(6) . ?
 O1A C7A 1.233(7) . ?
 O2A C11A 1.369(7) . ?
 O2A C14A 1.485(11) . ?
 O2A C1C 1.438(10) . ?
 N1 C8 1.416(6) . ?
 N1 C7 1.367(6) . ?
 N3 C18 1.374(6) . ?
 N3 C21 1.459(6) . ?
 N3 C24 1.462(6) . ?
 N2A C16A 1.344(7) . ?
 N2A C20A 1.345(7) . ?
 N1A C8A 1.437(6) . ?
 N1A C7A 1.367(7) . ?
 N3A C18A 1.370(7) . ?
 N3A C21A 1.468(7) . ?
 N3A C24A 1.464(8) . ?
 O3A C22A 1.424(8) . ?
 O3A C23A 1.419(10) . ?
 N2 C20 1.340(7) . ?
 N2 C16 1.342(7) . ?
 C18A C17A 1.416(7) . ?
 C18A C19A 1.413(7) . ?
 C2 C1 1.391(7) . ?
 C2 C7 1.478(7) . ?
 C2 C3 1.391(8) . ?
 C9 H9 0.9300 . ?
 C9 C10 1.387(7) . ?
 C9 C8 1.399(7) . ?
 C18 C17 1.408(7) . ?
 C18 C19 1.416(7) . ?
 C1A C2A 1.395(8) . ?
 C1A C6A 1.409(7) . ?
 C10 H10 0.9300 . ?
 C10 C11 1.402(7) . ?
 C17A H17A 0.9300 . ?
 C17A C16A 1.363(7) . ?
 C11 C12 1.386(7) . ?
 C8 C13 1.403(7) . ?
 C2A C7A 1.485(7) . ?
 C2A C3A 1.386(8) . ?
 C8A C9A 1.398(7) . ?
 C8A C13A 1.385(8) . ?
 C12 H12 0.9300 . ?
 C12 C13 1.387(7) . ?
 C16A H16A 0.9300 . ?
 C1 C6 1.393(7) . ?
 C21 H21A 0.9700 . ?
 C21 H21B 0.9700 . ?
 C21 C22 1.505(7) . ?
 C17 H17 0.9300 . ?
 C17 C16 1.365(8) . ?
 C6A H6A 0.9300 . ?
 C6A C5A 1.382(8) . ?
 C13 H13 0.9300 . ?
 C20A H20A 0.9300 . ?
 C20A C19A 1.368(8) . ?
 C9A H9A 0.9300 . ?
 C9A C10A 1.381(7) . ?
 C19A H19A 0.9300 . ?
 C6 H6 0.9300 . ?
 C6 C5 1.391(8) . ?
 C10A H10A 0.9300 . ?
 C10A C11A 1.394(8) . ?
 C12A H12A 0.9300 . ?
 C12A C11A 1.386(8) . ?
 C12A C13A 1.400(8) . ?
 C14 H14E 0.9700 . ?
 C14 H14F 0.9700 . ?
 C14 C15 1.502(8) . ?
 C20 H20 0.9300 . ?
 C20 C19 1.374(8) . ?
 C21A H21C 0.9700 . ?
 C21A H21D 0.9700 . ?
 C21A C22A 1.512(8) . ?
 C24 H24A 0.9700 . ?
 C24 H24B 0.9700 . ?
 C24 C23 1.515(8) . ?
 C22 H22A 0.9700 . ?
 C22 H22B 0.9700 . ?
 C19 H19 0.9300 . ?
 C13A H13A 0.9300 . ?
 C5 H5 0.9300 . ?
 C5 C4 1.378(8) . ?
 C4 H4 0.9300 . ?
 C4 C3 1.389(8) . ?
 C5A H5A 0.9300 . ?
 C5A C4A 1.382(9) . ?
 C3 H3 0.9300 . ?
 C16 H16 0.9300 . ?
 C15 H15G 0.9600 . ?
 C15 H15H 0.9600 . ?
 C15 H15I 0.9600 . ?
 C23 H23A 0.9700 . ?
 C23 H23B 0.9700 . ?
 C4A H4A 0.9300 . ?
 C4A C3A 1.392(8) . ?
 C3A H3A 0.9300 . ?
 C22A H22C 0.9700 . ?
 C22A H22D 0.9700 . ?
 C24A H24C 0.9700 . ?
 C24A H24D 0.9700 . ?
 C24A C23A 1.513(11) . ?
 C23A H23C 0.9700 . ?
 C23A H23D 0.9700 . ?
 C14A H14A 0.9700 . ?
 C14A H14B 0.9700 . ?
 C14A C15A 1.507(14) . ?
 C15A H15A 0.9600 . ?
 C15A H15B 0.9600 . ?
 C15A H15C 0.9600 . ?
 C1B H15D 0.9600 . ?
 C1B H15E 0.9600 . ?
 C1B H15F 0.9600 . ?
 C1B C1C 1.515(12) . ?
 C1C H14C 0.9700 . ?
 C1C H14D 0.9700 . ?

loop_
  _geom_angle_atom_site_label_1
  _geom_angle_atom_site_label_2
  _geom_angle_atom_site_label_3
  _geom_angle
  _geom_angle_site_symmetry_1
  _geom_angle_site_symmetry_3
  _geom_angle_publ_flag
 C1 Se1 N1 84.6(2) . . ?
 C1A Se1A N1A 84.4(2) . . ?
 C11 O2 C14 116.9(4) . . ?
 C22 O3 C23 108.1(4) . . ?
 C11A O2A C14A 108.5(6) . . ?
 C11A O2A C1C 126.5(6) . . ?
 C8 N1 Se1 118.8(3) . . ?
 C7 N1 Se1 115.2(3) . . ?
 C7 N1 C8 126.0(4) . . ?
 C18 N3 C21 117.5(4) . . ?
 C18 N3 C24 117.7(4) . . ?
 C21 N3 C24 114.9(4) . . ?
 C16A N2A C20A 116.3(5) . . ?
 C8A N1A Se1A 119.4(3) . . ?
 C7A N1A Se1A 115.7(3) . . ?
 C7A N1A C8A 124.7(4) . . ?
 C18A N3A C21A 119.4(4) . . ?
 C18A N3A C24A 118.9(5) . . ?
 C24A N3A C21A 113.3(5) . . ?
 C23A O3A C22A 108.4(6) . . ?
 C20 N2 C16 116.5(5) . . ?
 N3A C18A C17A 121.9(5) . . ?
 N3A C18A C19A 123.1(5) . . ?
 C19A C18A C17A 115.0(5) . . ?
 C1 C2 C7 116.9(4) . . ?
 C3 C2 C1 120.4(5) . . ?
 C3 C2 C7 122.7(5) . . ?
 C10 C9 H9 119.8 . . ?
 C10 C9 C8 120.5(5) . . ?
 C8 C9 H9 119.8 . . ?
 N3 C18 C17 122.9(4) . . ?
 N3 C18 C19 121.8(4) . . ?
 C17 C18 C19 115.3(5) . . ?
 C2A C1A Se1A 112.7(4) . . ?
 C2A C1A C6A 119.5(5) . . ?
 C6A C1A Se1A 127.7(4) . . ?
 C9 C10 H10 119.6 . . ?
 C9 C10 C11 120.7(5) . . ?
 C11 C10 H10 119.6 . . ?
 C18A C17A H17A 119.8 . . ?
 C16A C17A C18A 120.4(5) . . ?
 C16A C17A H17A 119.8 . . ?
 O2 C11 C10 115.8(4) . . ?
 O2 C11 C12 125.3(4) . . ?
 C12 C11 C10 118.9(5) . . ?
 C9 C8 N1 122.8(4) . . ?
 C9 C8 C13 118.3(4) . . ?
 C13 C8 N1 118.8(4) . . ?
 C1A C2A C7A 116.9(5) . . ?
 C3A C2A C1A 120.8(5) . . ?
 C3A C2A C7A 122.2(5) . . ?
 C9A C8A N1A 118.0(5) . . ?
 C13A C8A N1A 122.6(5) . . ?
 C13A C8A C9A 119.4(5) . . ?
 C11 C12 H12 119.8 . . ?
 C11 C12 C13 120.5(5) . . ?
 C13 C12 H12 119.8 . . ?
 N2A C16A C17A 124.0(5) . . ?
 N2A C16A H16A 118.0 . . ?
 C17A C16A H16A 118.0 . . ?
 O1A C7A N1A 126.9(5) . . ?
 O1A C7A C2A 123.0(5) . . ?
 N1A C7A C2A 110.2(5) . . ?
 C2 C1 Se1 112.4(4) . . ?
 C2 C1 C6 120.5(5) . . ?
 C6 C1 Se1 127.1(4) . . ?
 N3 C21 H21A 109.2 . . ?
 N3 C21 H21B 109.2 . . ?
 N3 C21 C22 112.1(4) . . ?
 H21A C21 H21B 107.9 . . ?
 C22 C21 H21A 109.2 . . ?
 C22 C21 H21B 109.2 . . ?
 O1 C7 N1 125.7(5) . . ?
 O1 C7 C2 123.5(4) . . ?
 N1 C7 C2 110.8(4) . . ?
 C18 C17 H17 120.0 . . ?
 C16 C17 C18 120.0(5) . . ?
 C16 C17 H17 120.0 . . ?
 C1A C6A H6A 120.8 . . ?
 C5A C6A C1A 118.5(5) . . ?
 C5A C6A H6A 120.8 . . ?
 C8 C13 H13 119.5 . . ?
 C12 C13 C8 121.0(5) . . ?
 C12 C13 H13 119.5 . . ?
 N2A C20A H20A 118.0 . . ?
 N2A C20A C19A 123.9(5) . . ?
 C19A C20A H20A 118.0 . . ?
 C8A C9A H9A 120.0 . . ?
 C10A C9A C8A 120.1(5) . . ?
 C10A C9A H9A 120.0 . . ?
 C18A C19A H19A 119.9 . . ?
 C20A C19A C18A 120.3(5) . . ?
 C20A C19A H19A 119.9 . . ?
 C1 C6 H6 120.8 . . ?
 C5 C6 C1 118.3(5) . . ?
 C5 C6 H6 120.8 . . ?
 C9A C10A H10A 119.7 . . ?
 C9A C10A C11A 120.7(5) . . ?
 C11A C10A H10A 119.7 . . ?
 C11A C12A H12A 120.0 . . ?
 C11A C12A C13A 120.0(5) . . ?
 C13A C12A H12A 120.0 . . ?
 O2 C14 H14E 110.3 . . ?
 O2 C14 H14F 110.3 . . ?
 O2 C14 C15 107.1(4) . . ?
 H14E C14 H14F 108.5 . . ?
 C15 C14 H14E 110.3 . . ?
 C15 C14 H14F 110.3 . . ?
 N2 C20 H20 118.2 . . ?
 N2 C20 C19 123.6(5) . . ?
 C19 C20 H20 118.2 . . ?
 O2A C11A C10A 116.3(5) . . ?
 O2A C11A C12A 124.3(5) . . ?
 C12A C11A C10A 119.4(5) . . ?
 N3A C21A H21C 109.4 . . ?
 N3A C21A H21D 109.4 . . ?
 N3A C21A C22A 111.2(5) . . ?
 H21C C21A H21D 108.0 . . ?
 C22A C21A H21C 109.4 . . ?
 C22A C21A H21D 109.4 . . ?
 N3 C24 H24A 109.2 . . ?
 N3 C24 H24B 109.2 . . ?
 N3 C24 C23 111.9(4) . . ?
 H24A C24 H24B 107.9 . . ?
 C23 C24 H24A 109.2 . . ?
 C23 C24 H24B 109.2 . . ?
 O3 C22 C21 112.5(4) . . ?
 O3 C22 H22A 109.1 . . ?
 O3 C22 H22B 109.1 . . ?
 C21 C22 H22A 109.1 . . ?
 C21 C22 H22B 109.1 . . ?
 H22A C22 H22B 107.8 . . ?
 C18 C19 H19 119.9 . . ?
 C20 C19 C18 120.2(5) . . ?
 C20 C19 H19 119.9 . . ?
 C8A C13A C12A 120.4(5) . . ?
 C8A C13A H13A 119.8 . . ?
 C12A C13A H13A 119.8 . . ?
 C6 C5 H5 119.3 . . ?
 C4 C5 C6 121.4(5) . . ?
 C4 C5 H5 119.3 . . ?
 C5 C4 H4 119.9 . . ?
 C5 C4 C3 120.2(6) . . ?
 C3 C4 H4 119.9 . . ?
 C6A C5A H5A 118.9 . . ?
 C4A C5A C6A 122.1(6) . . ?
 C4A C5A H5A 118.9 . . ?
 C2 C3 H3 120.4 . . ?
 C4 C3 C2 119.1(5) . . ?
 C4 C3 H3 120.4 . . ?
 N2 C16 C17 124.3(5) . . ?
 N2 C16 H16 117.8 . . ?
 C17 C16 H16 117.8 . . ?
 C14 C15 H15G 109.5 . . ?
 C14 C15 H15H 109.5 . . ?
 C14 C15 H15I 109.5 . . ?
 H15G C15 H15H 109.5 . . ?
 H15G C15 H15I 109.5 . . ?
 H15H C15 H15I 109.5 . . ?
 O3 C23 C24 112.3(4) . . ?
 O3 C23 H23A 109.1 . . ?
 O3 C23 H23B 109.1 . . ?
 C24 C23 H23A 109.1 . . ?
 C24 C23 H23B 109.1 . . ?
 H23A C23 H23B 107.9 . . ?
 C5A C4A H4A 120.3 . . ?
 C5A C4A C3A 119.4(6) . . ?
 C3A C4A H4A 120.3 . . ?
 C2A C3A C4A 119.7(6) . . ?
 C2A C3A H3A 120.2 . . ?
 C4A C3A H3A 120.2 . . ?
 O3A C22A C21A 112.5(5) . . ?
 O3A C22A H22C 109.1 . . ?
 O3A C22A H22D 109.1 . . ?
 C21A C22A H22C 109.1 . . ?
 C21A C22A H22D 109.1 . . ?
 H22C C22A H22D 107.8 . . ?
 N3A C24A H24C 109.4 . . ?
 N3A C24A H24D 109.4 . . ?
 N3A C24A C23A 111.0(6) . . ?
 H24C C24A H24D 108.0 . . ?
 C23A C24A H24C 109.4 . . ?
 C23A C24A H24D 109.4 . . ?
 O3A C23A C24A 111.3(7) . . ?
 O3A C23A H23C 109.4 . . ?
 O3A C23A H23D 109.4 . . ?
 C24A C23A H23C 109.4 . . ?
 C24A C23A H23D 109.4 . . ?
 H23C C23A H23D 108.0 . . ?
 O2A C14A H14A 111.2 . . ?
 O2A C14A H14B 111.2 . . ?
 O2A C14A C15A 103.0(9) . . ?
 H14A C14A H14B 109.1 . . ?
 C15A C14A H14A 111.2 . . ?
 C15A C14A H14B 111.2 . . ?
 C14A C15A H15A 109.5 . . ?
 C14A C15A H15B 109.5 . . ?
 C14A C15A H15C 109.5 . . ?
 H15A C15A H15B 109.5 . . ?
 H15A C15A H15C 109.5 . . ?
 H15B C15A H15C 109.5 . . ?
 H15D C1B H15E 109.5 . . ?
 H15D C1B H15F 109.5 . . ?
 H15E C1B H15F 109.5 . . ?
 C1C C1B H15D 109.5 . . ?
 C1C C1B H15E 109.5 . . ?
 C1C C1B H15F 109.5 . . ?
 O2A C1C C1B 107.6(8) . . ?
 O2A C1C H14C 110.2 . . ?
 O2A C1C H14D 110.2 . . ?
 C1B C1C H14C 110.2 . . ?
 C1B C1C H14D 110.2 . . ?
 H14C C1C H14D 108.5 . . ?

loop_
  _geom_torsion_atom_site_label_1
  _geom_torsion_atom_site_label_2
  _geom_torsion_atom_site_label_3
  _geom_torsion_atom_site_label_4
  _geom_torsion
  _geom_torsion_site_symmetry_1
  _geom_torsion_site_symmetry_2
  _geom_torsion_site_symmetry_3
  _geom_torsion_site_symmetry_4
  _geom_torsion_publ_flag
 Se1 N1 C8 C9 -166.6(4) . . . . ?
 Se1 N1 C8 C13 10.0(6) . . . . ?
 Se1 N1 C7 O1 -175.6(4) . . . . ?
 Se1 N1 C7 C2 4.3(5) . . . . ?
 Se1 C1 C6 C5 178.4(4) . . . . ?
 Se1A N1A C8A C9A 20.1(6) . . . . ?
 Se1A N1A C8A C13A -158.1(4) . . . . ?
 Se1A N1A C7A O1A 179.0(4) . . . . ?
 Se1A N1A C7A C2A -0.7(5) . . . . ?
 Se1A C1A C2A C7A 1.1(6) . . . . ?
 Se1A C1A C2A C3A -177.7(4) . . . . ?
 Se1A C1A C6A C5A 178.2(4) . . . . ?
 O2 C11 C12 C13 -179.8(5) . . . . ?
 N1 C8 C13 C12 -175.0(4) . . . . ?
 N3 C18 C17 C16 179.4(5) . . . . ?
 N3 C18 C19 C20 -179.0(5) . . . . ?
 N3 C21 C22 O3 53.0(6) . . . . ?
 N3 C24 C23 O3 -51.8(6) . . . . ?
 N2A C20A C19A C18A 0.8(8) . . . . ?
 N1A Se1A C1A C2A -1.2(4) . . . . ?
 N1A Se1A C1A C6A 179.9(5) . . . . ?
 N1A C8A C9A C10A -175.5(5) . . . . ?
 N1A C8A C13A C12A 176.4(5) . . . . ?
 N3A C18A C17A C16A -179.3(5) . . . . ?
 N3A C18A C19A C20A 178.9(5) . . . . ?
 N3A C21A C22A O3A 53.1(7) . . . . ?
 N3A C24A C23A O3A -56.7(8) . . . . ?
 N2 C20 C19 C18 -0.3(8) . . . . ?
 C18A N3A C21A C22A 165.7(5) . . . . ?
 C18A N3A C24A C23A -163.7(6) . . . . ?
 C18A C17A C16A N2A -0.1(8) . . . . ?
 C2 C1 C6 C5 -0.2(8) . . . . ?
 C9 C10 C11 O2 179.9(4) . . . . ?
 C9 C10 C11 C12 -1.4(7) . . . . ?
 C9 C8 C13 C12 1.8(7) . . . . ?
 C18 N3 C21 C22 172.8(4) . . . . ?
 C18 N3 C24 C23 -173.3(4) . . . . ?
 C18 C17 C16 N2 -0.5(8) . . . . ?
 C1A C2A C7A O1A 180.0(5) . . . . ?
 C1A C2A C7A N1A -0.2(7) . . . . ?
 C1A C2A C3A C4A -1.3(8) . . . . ?
 C1A C6A C5A C4A 0.1(9) . . . . ?
 C10 C9 C8 N1 175.1(4) . . . . ?
 C10 C9 C8 C13 -1.5(7) . . . . ?
 C10 C11 C12 C13 1.7(7) . . . . ?
 C17A C18A C19A C20A -0.1(7) . . . . ?
 C11 O2 C14 C15 175.1(4) . . . . ?
 C11 C12 C13 C8 -1.9(7) . . . . ?
 C8 N1 C7 O1 3.9(8) . . . . ?
 C8 N1 C7 C2 -176.2(4) . . . . ?
 C8 C9 C10 C11 1.4(7) . . . . ?
 C2A C1A C6A C5A -0.7(8) . . . . ?
 C8A N1A C7A O1A 4.3(8) . . . . ?
 C8A N1A C7A C2A -175.5(4) . . . . ?
 C8A C9A C10A C11A -0.4(8) . . . . ?
 C16A N2A C20A C19A -1.1(8) . . . . ?
 C7A N1A C8A C9A -165.4(5) . . . . ?
 C7A N1A C8A C13A 16.5(8) . . . . ?
 C7A C2A C3A C4A 179.9(5) . . . . ?
 C1 C2 C7 O1 176.6(5) . . . . ?
 C1 C2 C7 N1 -3.3(6) . . . . ?
 C1 C2 C3 C4 -0.4(8) . . . . ?
 C1 C6 C5 C4 0.7(8) . . . . ?
 C21 N3 C18 C17 -16.2(7) . . . . ?
 C21 N3 C18 C19 164.1(4) . . . . ?
 C21 N3 C24 C23 41.8(6) . . . . ?
 C7 N1 C8 C9 13.9(7) . . . . ?
 C7 N1 C8 C13 -169.5(4) . . . . ?
 C7 C2 C1 Se1 0.7(6) . . . . ?
 C7 C2 C1 C6 179.5(5) . . . . ?
 C7 C2 C3 C4 -179.8(5) . . . . ?
 C17 C18 C19 C20 1.2(7) . . . . ?
 C6A C1A C2A C7A -179.9(5) . . . . ?
 C6A C1A C2A C3A 1.3(8) . . . . ?
 C6A C5A C4A C3A -0.1(9) . . . . ?
 C20A N2A C16A C17A 0.7(7) . . . . ?
 C9A C8A C13A C12A -1.7(8) . . . . ?
 C9A C10A C11A O2A 177.7(5) . . . . ?
 C9A C10A C11A C12A -2.9(8) . . . . ?
 C19A C18A C17A C16A -0.3(7) . . . . ?
 C6 C5 C4 C3 -1.0(9) . . . . ?
 C14 O2 C11 C10 -174.7(4) . . . . ?
 C14 O2 C11 C12 6.7(7) . . . . ?
 C20 N2 C16 C17 1.4(8) . . . . ?
 C11A O2A C14A C15A 173.7(8) . . . . ?
 C11A O2A C1C C1B 82.8(10) . . . . ?
 C11A C12A C13A C8A -1.6(8) . . . . ?
 C21A N3A C18A C17A -7.5(7) . . . . ?
 C21A N3A C18A C19A 173.6(5) . . . . ?
 C21A N3A C24A C23A 48.1(7) . . . . ?
 C24 N3 C18 C17 -160.2(5) . . . . ?
 C24 N3 C18 C19 20.1(7) . . . . ?
 C24 N3 C21 C22 -42.2(6) . . . . ?
 C22 O3 C23 C24 61.7(5) . . . . ?
 C19 C18 C17 C16 -0.9(7) . . . . ?
 C13A C8A C9A C10A 2.7(8) . . . . ?
 C13A C12A C11A O2A -176.7(5) . . . . ?
 C13A C12A C11A C10A 3.9(8) . . . . ?
 C5 C4 C3 C2 0.9(9) . . . . ?
 C5A C4A C3A C2A 0.7(9) . . . . ?
 C3 C2 C1 Se1 -178.7(4) . . . . ?
 C3 C2 C1 C6 0.1(8) . . . . ?
 C3 C2 C7 O1 -4.0(8) . . . . ?
 C3 C2 C7 N1 176.1(5) . . . . ?
 C16 N2 C20 C19 -1.0(8) . . . . ?
 C23 O3 C22 C21 -62.4(5) . . . . ?
 C3A C2A C7A O1A -1.2(8) . . . . ?
 C3A C2A C7A N1A 178.5(5) . . . . ?
 C22A O3A C23A C24A 62.7(8) . . . . ?
 C24A N3A C18A C17A -153.7(5) . . . . ?
 C24A N3A C18A C19A 27.4(8) . . . . ?
 C24A N3A C21A C22A -46.3(6) . . . . ?
 C23A O3A C22A C21A -61.3(7) . . . . ?
 C14A O2A C11A C10A -170.8(7) . . . . ?
 C14A O2A C11A C12A 9.8(9) . . . . ?
 C1C O2A C11A C10A 177.9(6) . . . . ?
 C1C O2A C11A C12A -1.5(9) . . . . ?

_shelx_res_file
;
TITL jmwjt3_cu_a.res in P-1
    jmwjt3_cu.res
    created by SHELXL-2018/3 at 16:04:51 on 09-Dec-2019
REM Old TITL jmwjt3_cu_a.res in P-1
REM SHELXT solution in P-1: R1 0.113, Rweak 0.004, Alpha 0.033
REM <I/s> 0.000 for 0 systematic absences, Orientation as input
REM Formula found by SHELXT: C49 N8 O4 Se2
CELL 1.54184 10.1213 12.3068 18.9297 75.58 77.135 71.395
ZERR 4 0.0003 0.0003 0.0006 0.002 0.002 0.003
LATT 1
SFAC C H N O Se
UNIT 96 100 12 12 4
SADI O2a C14a O2a C1c
SADI 0.04 O2a C15a O2a C1b
SADI C14a C15a C1c C1b

L.S. 4 0 0
PLAN  9
CONF
BOND
list 4
MORE -1
ACTA
BOND $H
fmap 2 53
REM <olex2.extras>
REM <HklSrc "%./jmwjt3_Cu.hkl">
REM </olex2.extras>

WGHT    0.161800    6.063100
FVAR       0.26211   0.45580
SE1   5    0.640213    0.102799    0.083955    11.00000    0.02899
SE1A  5    0.713060    0.510240    0.501628    11.00000    0.02929
O2    4    0.751116   -0.086006   -0.234607    11.00000    0.03381
O3    4    1.025449   -0.177447    0.526691    11.00000    0.03742
O1    4    0.383999    0.326081   -0.055659    11.00000    0.03848
O1A   4    0.477686    0.760532    0.361083    11.00000    0.04032
O2A   4    0.811497    0.335816    0.182297    11.00000    0.04399
N1    3    0.554881    0.167237   -0.005845    11.00000    0.02668
N3    3    0.941149   -0.125999    0.385125    11.00000    0.02938
N2A   3    0.808784    0.435755    0.614752    11.00000    0.03164
N1A   3    0.626430    0.584952    0.412533    11.00000    0.02894
N3A   3    0.969827    0.270955    0.812923    11.00000    0.03659
O3A   4    1.044611    0.190154    0.957513    11.00000    0.06067
N2    3    0.736795    0.036379    0.199935    11.00000    0.03670
C18A  1    0.917660    0.325726    0.748366    11.00000    0.02937
C2    1    0.445918    0.318173    0.060548    11.00000    0.03194
C9    1    0.565447    0.150241   -0.134500    11.00000    0.02827
AFIX  43
H9    2    0.507554    0.226155   -0.144758    11.00000   -1.20000
AFIX   0

C18   1    0.874229   -0.074056    0.324507    11.00000    0.02793
C1A   1    0.611810    0.652316    0.533822    11.00000    0.03270
C10   1    0.619039    0.085420   -0.190067    11.00000    0.02991
AFIX  43
H10   2    0.598327    0.118925   -0.237515    11.00000   -1.20000
AFIX   0

C17A  1    0.793877    0.311176    0.733591    11.00000    0.02970
AFIX  43
H17A  2    0.745158    0.263957    0.768559    11.00000   -1.20000
AFIX   0

C11   1    0.704059   -0.030009   -0.175499    11.00000    0.02936
C8    1    0.597867    0.102228   -0.063134    11.00000    0.02667
C2A   1    0.534623    0.733540    0.481431    11.00000    0.03291
C8A   1    0.663810    0.525096    0.351657    11.00000    0.03137
C12   1    0.736550   -0.077855   -0.104892    11.00000    0.03027
AFIX  43
H12   2    0.794857   -0.153649   -0.094849    11.00000   -1.20000
AFIX   0

C16A  1    0.745661    0.365932    0.668446    11.00000    0.03055
AFIX  43
H16A  2    0.664054    0.354257    0.660672    11.00000   -1.20000
AFIX   0

C7A   1    0.541289    0.696578    0.411507    11.00000    0.03287
C1    1    0.528721    0.245877    0.113031    11.00000    0.03096
C21   1    0.860877   -0.178503    0.451418    11.00000    0.03266
AFIX  23
H21A  2    0.820074   -0.230981    0.438519    11.00000   -1.20000
H21B  2    0.784103   -0.117494    0.470854    11.00000   -1.20000
AFIX   0

C7    1    0.456116    0.273324   -0.006567    11.00000    0.02879
C17   1    0.748895   -0.093940    0.317071    11.00000    0.03161
AFIX  43
H17   2    0.708372   -0.144695    0.353971    11.00000   -1.20000
AFIX   0

C6A   1    0.609386    0.682361    0.601322    11.00000    0.03468
AFIX  43
H6A   2    0.659374    0.629104    0.637132    11.00000   -1.20000
AFIX   0

C13   1    0.682717   -0.013491   -0.049095    11.00000    0.03032
AFIX  43
H13   2    0.703182   -0.047566   -0.001660    11.00000   -1.20000
AFIX   0

C20A  1    0.927310    0.449566    0.627618    11.00000    0.03256
AFIX  43
H20A  2    0.973945    0.496418    0.590984    11.00000   -1.20000
AFIX   0

C9A   1    0.723522    0.404042    0.365723    11.00000    0.03370
AFIX  43
H9A   2    0.731865    0.364008    0.413879    11.00000   -1.20000
AFIX   0

C19A  1    0.983421    0.398854    0.691343    11.00000    0.03195
AFIX  43
H19A  2    1.065209    0.412567    0.697163    11.00000   -1.20000
AFIX   0

C6    1    0.526002    0.282104    0.177593    11.00000    0.03414
AFIX  43
H6    2    0.580888    0.234038    0.212939    11.00000   -1.20000
AFIX   0

C10A  1    0.770130    0.343852    0.308178    11.00000    0.03545
AFIX  43
H10A  2    0.810313    0.263414    0.317868    11.00000   -1.20000
AFIX   0
C12A  1    0.691869    0.521447    0.222023    11.00000    0.03655
AFIX  43
H12A  2    0.677875    0.560434    0.174275    11.00000   -1.20000
AFIX   0

C14   1    0.828334   -0.207830   -0.219826    11.00000    0.03488
AFIX  23
H14E  2    0.773234   -0.251227   -0.181421    11.00000   -1.20000
H14F  2    0.916350   -0.217099   -0.203577    11.00000   -1.20000
AFIX   0

C20   1    0.857118    0.055083    0.205442    11.00000    0.03517
AFIX  43
H20   2    0.894753    0.105811    0.167083    11.00000   -1.20000
AFIX   0

C11A  1    0.757569    0.402409    0.235732    11.00000    0.03658
C21A  1    0.887014    0.206609    0.872337    11.00000    0.03568
AFIX  23
H21C  2    0.850486    0.159465    0.851661    11.00000   -1.20000
H21D  2    0.807367    0.261640    0.895375    11.00000   -1.20000
AFIX   0

C24   1    1.040096   -0.072020    0.398792    11.00000    0.03449
AFIX  23
H24A  2    0.988793    0.004283    0.410427    11.00000   -1.20000
H24B  2    1.107691   -0.061007    0.354323    11.00000   -1.20000
AFIX   0
C22   1    0.951154   -0.245191    0.510148    11.00000    0.03393
AFIX  23
H22A  2    0.891699   -0.271565    0.554695    11.00000   -1.20000
H22B  2    1.018200   -0.313757    0.493698    11.00000   -1.20000
AFIX   0
C19   1    0.927954    0.003408    0.264672    11.00000    0.03347
AFIX  43
H19   2    1.011403    0.019333    0.265482    11.00000   -1.20000
AFIX   0

C13A  1    0.646591    0.582948    0.280093    11.00000    0.03543
AFIX  43
H13A  2    0.604691    0.663148    0.270553    11.00000   -1.20000
AFIX   0

C5    1    0.439134    0.391963    0.187847    11.00000    0.03857
AFIX  43
H5    2    0.436997    0.417632    0.230435    11.00000   -1.20000
AFIX   0
C4    1    0.356199    0.463575    0.136301    11.00000    0.04067
AFIX  43
H4    2    0.297843    0.536176    0.144728    11.00000   -1.20000
AFIX   0

C5A   1    0.530999    0.792819    0.613091    11.00000    0.04076
AFIX  43
H5A   2    0.529020    0.813286    0.657489    11.00000   -1.20000
AFIX   0

C3    1    0.359470    0.427678    0.071781    11.00000    0.03771
AFIX  43
H3    2    0.304580    0.476223    0.036559    11.00000   -1.20000
AFIX   0

C16   1    0.686881   -0.038772    0.255749    11.00000    0.03532
AFIX  43
H16   2    0.604591   -0.054286    0.252423    11.00000   -1.20000
AFIX   0

C15   1    0.856940   -0.251800   -0.290527    11.00000    0.04077
AFIX 137
H15G  2    0.911878   -0.208456   -0.327973    11.00000   -1.50000
H15H  2    0.769102   -0.241917   -0.306081    11.00000   -1.50000
H15I  2    0.908124   -0.333130   -0.282715    11.00000   -1.50000
AFIX   0

C23   1    1.118459   -0.145797    0.461741    11.00000    0.03853
AFIX  23
H23A  2    1.183063   -0.216169    0.446429    11.00000   -1.20000
H23B  2    1.173852   -0.102579    0.472904    11.00000   -1.20000
AFIX   0

C4A   1    0.455474    0.873817    0.561002    11.00000    0.04185
AFIX  43
H4A   2    0.403483    0.947492    0.570404    11.00000   -1.20000
AFIX   0
C3A   1    0.457975    0.844067    0.494350    11.00000    0.03833
AFIX  43
H3A   2    0.408432    0.898119    0.458646    11.00000   -1.20000
AFIX   0

C22A  1    0.975798    0.128528    0.929981    11.00000    0.04445
AFIX  23
H22C  2    0.915995    0.093379    0.970702    11.00000   -1.20000
H22D  2    1.046304    0.066031    0.908597    11.00000   -1.20000
AFIX   0
C24A  1    1.054693    0.323930    0.839912    11.00000    0.05487
AFIX  23
H24C  2    0.993381    0.390468    0.860866    11.00000   -1.20000
H24D  2    1.120129    0.351771    0.798958    11.00000   -1.20000
AFIX   0
C23A  1    1.136204    0.236710    0.897890    11.00000    0.06563
AFIX  23
H23C  2    1.203592    0.173636    0.875717    11.00000   -1.20000
H23D  2    1.188430    0.274705    0.916322    11.00000   -1.20000
AFIX   0

PART 1
C14A  1    0.810153    0.414933    0.108859    21.00000    0.03242
AFIX  23
H14A  2    0.859263    0.472673    0.105026    21.00000   -1.20000
H14B  2    0.714370    0.454662    0.099525    21.00000   -1.20000
AFIX   0
C15A  1    0.886600    0.332715    0.056298    21.00000    0.04069
AFIX 137
H15A  2    0.893073    0.376362    0.006587    21.00000   -1.50000
H15B  2    0.835657    0.276857    0.061000    21.00000   -1.50000
H15C  2    0.979764    0.292555    0.067828    21.00000   -1.50000
AFIX   0
PART 0
PART 2
C1B   1    0.928626    0.428381    0.071264   -21.00000    0.04061
AFIX 137
H15D  2    0.921825    0.463984    0.020471   -21.00000   -1.50000
H15E  2    1.016368    0.368259    0.074266   -21.00000   -1.50000
H15F  2    0.924673    0.486454    0.098006   -21.00000   -1.50000
AFIX   0
C1C   1    0.807157    0.375439    0.104473   -21.00000    0.03627
AFIX  23
H14C  2    0.718136    0.433341    0.096317   -21.00000   -1.20000
H14D  2    0.816283    0.310437    0.081713   -21.00000   -1.20000
AFIX   0
HKLF 4




REM  jmwjt3_cu_a.res in P-1
REM wR2 = 0.2668, GooF = S = 1.145, Restrained GooF = 1.145 for all data
REM R1 = 0.0923 for 7842 Fo > 4sig(Fo) and 0.0973 for all 8820 data
REM 261 parameters refined using 3 restraints

END

WGHT      0.1618      6.0630

REM Highest difference peak  3.912,  deepest hole -3.944,  1-sigma level  0.162
Q1    1   0.7012  0.4768  0.4941  11.00000  0.05    3.91
Q2    1   0.6377  0.0648  0.0777  11.00000  0.05    3.68
Q3    1   0.7092  0.5443  0.5169  11.00000  0.05    3.53
Q4    1   0.6558  0.1377  0.0849  11.00000  0.05    3.05
Q5    1   1.0762  0.1591  0.9393  11.00000  0.05    1.51
Q6    1   1.1685  0.2038  0.8801  11.00000  0.05    1.27
Q7    1   1.0092  0.2186  0.9764  11.00000  0.05    1.20
Q8    1   1.0907  0.2945  0.8182  11.00000  0.05    1.15
Q9    1   1.1088  0.2658  0.9199  11.00000  0.05    1.14
;
_shelx_res_checksum                17552
_shelx_hkl_file
;
   0   0   1    1.82    0.18
   0   0   2  388.09   19.07
   0   0   3  573.02   28.18
   0   0   4   25.81    1.69
   0   0   5  467.05   23.28
   0   0   6    5.52    0.78
   0   0   7 1635.28   80.32
   0   0   8   17.14    1.66
   0   0  -9  380.87   18.52
   0   0   9  336.32   18.61
   0   0 -10  396.27   20.37
   0   0 -11    0.34    0.38
   0   0 -12  271.47   13.11
   0   0 -12  227.02   13.62
   0   0  13    0.46    0.38
   0   0 -13    0.25    0.39
   0   0 -13    0.31    0.40
   0   0 -14   40.75    2.61
   0   0  14   40.63    2.62
   0   0 -14   42.77    2.76
   0   0  15    2.23    0.57
   0   0 -15    3.40    0.72
   0   0 -15    1.72    0.60
   0   0 -16  112.01    6.42
   0   0 -16  113.95    6.25
   0   0  16  116.76    6.29
   0   0 -17   39.36    2.67
   0   0  17   38.18    2.55
   0   0 -17   38.58    2.53
   0   0 -18    3.25    0.71
   0   0  19   60.92    3.62
   0   0  20    6.04    0.75
   0   0 -20    5.46    0.87
   0   0 -21    7.78    0.88
   0   0  21    7.95    0.75
   0   0 -22   50.14    2.79
   0   1 -21    5.07    0.69
   0  -1  20   65.90    3.73
   0   1 -20   69.03    3.93
   0   1 -19    3.07    0.76
   0  -1  19    2.52    0.56
   0  -1  18   66.45    3.85
   0   1 -18   62.81    3.93
   0   1 -17    1.64    0.64
   0  -1  17    2.60    0.66
   0   1 -17    2.36    0.65
   0   1 -16   99.31    5.49
   0   1 -16   95.05    5.60
   0   1 -15  229.50   12.02
   0   1 -15  229.27   11.87
   0   1 -14    2.85    0.68
   0   1 -14    2.95    0.85
   0   1 -14    4.08    0.69
   0   1 -13  305.25   15.08
   0   1 -13  297.21   15.00
   0   1 -13  280.98   14.85
   0   1 -12    8.52    0.98
   0   1 -12    8.88    0.92
   0   1 -12   11.36    1.25
   0   1 -10  154.26    8.49
   0  -1  10  165.03    8.99
   0  -1   9    0.50    0.56
   0   1  -9    0.20    0.31
   0  -1   8 1047.87   49.62
   0   1  -8  972.53   49.24
   0  -1   7    0.21    0.40
   0   1  -7    0.10    0.28
   0   1  -6  491.52   25.92
   0  -1   6  582.96   26.21
   0   1  -5  107.88    5.35
   0  -1   5  113.12    5.75
   0   1  -5  102.53    5.54
   0  -1   4   67.81    3.33
   0   1  -4   62.56    3.07
   0   1  -3    3.58    0.34
   0   1  -3    5.22    0.43
   0   1  -2  127.05    6.40
   0   1  -1  801.23   39.22
   0   1   0    0.30    0.18
   0   1   1  997.88   49.25
   0   1   1 1017.51   49.19
   0   1   2  366.12   18.03
   0   1   3   49.78    2.83
   0   1   3   47.32    2.55
   0  -1  -4    7.49    0.98
   0   1   4    7.83    0.59
   0   1   4    9.53    0.95
   0   1   5    0.13    0.45
   0  -1  -5    0.44    0.54
   0   1   5    0.53    0.19
   0   1   6  575.76   29.84
   0  -1  -6  628.95   30.27
   0   1   7   58.30    3.87
   0  -1  -7   65.80    4.35
   0  -1  -8   13.94    1.84
   0  -1  -9 1238.54   62.15
   0  -1 -10    1.67    0.80
   0  -1 -10    3.88    1.25
   0  -1 -11  210.49   12.23
   0  -1 -11  242.51   13.44
   0  -1 -12    3.93    1.41
   0  -1 -12    2.65    0.89
   0  -1 -12    1.77    0.59
   0   1  13   92.26    5.15
   0  -1 -13   94.88    5.31
   0  -1 -13   85.24    6.15
   0  -1 -13   97.15    5.25
   0  -1 -13   98.45    7.41
   0  -1 -14  252.04   12.76
   0  -1 -14  234.34   12.54
   0  -1 -14  226.05   13.77
   0   1  14  259.90   12.66
   0  -1 -14  274.97   15.74
   0  -1 -15   25.50    1.86
   0  -1 -15   25.75    2.00
   0   1  15   28.43    1.97
   0  -1 -16   41.02    4.77
   0  -1 -16   36.83    2.50
   0  -1 -16   42.03    2.72
   0   1  16   40.46    2.62
   0  -1 -17    5.28    1.88
   0  -1 -17    3.49    0.63
   0  -1 -17    4.40    0.76
   0   1  17    3.71    0.69
   0   1  18  103.62    5.58
   0  -1 -18   96.99    5.60
   0  -1 -19    6.00    0.81
   0   1  19    6.93    0.81
   0   1  20    0.84    0.42
   0   1  20   -0.13    0.38
   0   1  21   44.16    2.61
   0  -1 -21   44.24    2.76
   0   1  22   -0.11    0.27
   0  -1 -22   -0.03    0.31
   0   1  23   50.42    2.95
   0   2 -21   40.43    2.35
   0   2 -20    0.05    0.39
   0   2 -19   77.61    4.32
   0   2 -19   71.03    4.10
   0   2 -18    4.59    0.75
   0  -2  18    4.58    0.71
   0   2 -18    4.46    0.86
   0  -2  17  176.63    9.30
   0   2 -17  177.55    9.54
   0   2 -16   57.26    3.55
   0  -2  16   57.44    3.50
   0   2 -16   57.00    3.66
   0  -2  15   22.89    1.84
   0   2 -15   24.64    1.92
   0   2 -15   28.15    2.09
   0   2 -14  287.52   14.41
   0   2 -14  267.43   14.19
   0   2 -14  280.77   14.36
   0   2 -13    0.28    0.47
   0   2 -13    0.88    0.93
   0   2 -13    1.07    0.51
   0   2 -12  219.65   11.17
   0   2 -12  211.86   10.97
   0   2 -12  209.32   11.07
   0   2 -11  227.18   11.09
   0   2 -11  204.19   10.87
   0   2 -11  212.02   11.01
   0  -2   9  340.54   17.57
   0  -2   8    1.18    0.48
   0  -2   7 1047.47   43.68
   0   2  -7  842.39   43.02
   0  -2   6    8.41    0.87
   0   2  -6    8.36    0.70
   0  -2   5    3.81    0.56
   0   2  -5    4.31    0.51
   0   2  -5    4.42    0.90
   0   2  -4  171.86    9.35
   0   2  -4  174.84    8.87
   0   2  -3  116.98    5.42
   0  -2   3   96.95    5.03
   0   2  -2   11.44    1.01
   0   2  -2   10.94    0.96
   0   2  -1   51.06    2.80
   0   2  -1   46.33    2.84
   0   2   0   13.23    1.06
   0   2   1   16.84    1.88
   0   2   1  141.69    2.84
   0   2   2   25.17    1.64
   0   2   2   24.14    1.52
   0   2   3    1.23    0.44
   0   2   3    4.73    0.61
   0   2   4    3.78    0.57
   0   2   5  274.80   13.79
   0   2   6    3.95    0.57
   0  -2  -6    5.10    1.16
   0  -2  -7   18.47    2.05
   0   2   7   18.70    1.27
   0  -2  -8  290.35   14.44
   0   2   8  253.48   12.84
   0  -2  -9    4.36    1.25
   0  -2 -10  148.71    9.42
   0  -2 -11   17.42    2.49
   0  -2 -12   89.51    6.12
   0  -2 -12   92.80    4.95
   0   2  12   80.32    4.76
   0  -2 -13  134.78    9.06
   0  -2 -13  127.68    6.72
   0  -2 -13  119.48    7.96
   0   2  13  116.76    6.52
   0   2  14    5.75    0.80
   0  -2 -14    5.50    1.69
   0  -2 -14    5.39    1.42
   0  -2 -15  369.88   21.71
   0   2  15  399.45   20.06
   0  -2 -15  440.13   23.39
   0  -2 -15  399.29   20.10
   0  -2 -16    2.55    1.52
   0   2  16    4.15    0.74
   0  -2 -16    3.67    0.70
   0   2  17   99.71    5.64
   0  -2 -17  111.71    8.70
   0  -2 -17  100.85    5.64
   0   2  18   54.53    3.28
   0  -2 -18   52.19    3.26
   0  -2 -19   12.07    1.11
   0   2  19   12.24    1.15
   0   2  20   56.11    3.28
   0   2  21    0.54    0.35
   0   2  21    0.29    0.36
   0  -2 -22   36.26    2.54
   0   2  22   53.40    2.59
   0   3 -20   26.23    1.71
   0   3 -19   15.11    1.29
   0   3 -19   14.60    1.21
   0   3 -18   19.35    1.59
   0   3 -18   18.83    1.51
   0   3 -17  237.56   12.38
   0   3 -16    3.20    0.82
   0   3 -15  339.03   16.74
   0   3 -15  305.72   16.66
   0   3 -15  329.64   16.58
   0   3 -14   56.55    3.44
   0   3 -14   52.39    3.50
   0   3 -14   56.35    3.57
   0   3 -13    1.98    0.67
   0   3 -13    1.87    0.96
   0   3 -13    2.50    0.75
   0   3 -12   17.23    1.49
   0   3 -12   19.40    1.46
   0   3 -12   15.16    1.70
   0   3 -12   15.60    1.28
   0   3 -11    3.72    0.55
   0   3 -11    3.22    0.61
   0   3 -11    2.83    1.05
   0   3 -11    2.90    0.60
   0   3 -10  239.10   12.31
   0   3 -10  247.25   12.45
   0  -3   7   73.85    4.25
   0   3  -7   72.98    4.11
   0  -3   6   79.29    4.49
   0   3  -6   80.69    4.50
   0   3  -5 1011.26   49.77
   0  -3   4    0.46    0.13
   0   3  -3  846.87   41.91
   0   3  -2    5.14    0.76
   0   3  -1  466.42   22.47
   0   3  -1  429.90   22.55
   0   3   0  141.09    7.53
   0   3   1  240.86   12.32
   0   3   2 5977.40  286.18
   0   3   2 5800.11  286.03
   0   3   3    6.67    0.77
   0   3   3    5.79    0.87
   0   3   4   26.36    1.84
   0   3   4   23.13    1.67
   0   3   5   71.64    4.22
   0   3   5   78.50    4.32
   0   3   6  202.62   10.51
   0  -3  -7  576.89   30.23
   0   3   7  592.58   29.24
   0   3   8   22.82    1.66
   0  -3  -8   21.87    2.44
   0  -3  -9    4.01    1.26
   0  -3 -10   22.36    2.69
   0  -3 -11  281.38   16.27
   0   3  12  151.35    8.18
   0  -3 -12  166.36    9.93
   0  -3 -12  178.82   10.69
   0  -3 -13   18.92    2.59
   0   3  13   20.74    1.60
   0   3  14  544.19   27.87
   0  -3 -14  606.92   30.14
   0  -3 -14  590.59   30.92
   0  -3 -15    0.68    1.12
   0   3  15   -0.26    0.42
   0  -3 -15    0.51    0.88
   0  -3 -15    0.12    0.39
   0  -3 -16   14.21    1.30
   0  -3 -16   17.30    2.99
   0   3  16   16.22    1.42
   0  -3 -16   17.22    2.52
   0   3  17   24.00    1.81
   0  -3 -17   17.80    3.14
   0  -3 -17   22.43    1.71
   0  -3 -18   17.71    1.38
   0   3  18   15.68    1.42
   0   3  19  216.00   11.14
   0   3  20    6.63    0.81
   0   3  21   51.55    3.09
   0   3  21   57.51    3.16
   0   3  22    2.69    0.45
   0   3  22    2.82    0.41
   0   3  23    1.17    0.48
   0   3  23    1.36    0.27
   0   4 -20    8.74    0.73
   0   4 -19    6.62    0.75
   0   4 -19    6.84    0.75
   0   4 -18  137.94    7.24
   0   4 -18  134.17    7.17
   0   4 -17    5.90    0.86
   0   4 -17    4.60    0.80
   0   4 -16   55.64    3.58
   0   4 -16   65.41    3.77
   0   4 -15   44.37    2.99
   0   4 -14  172.29    8.51
   0   4 -14  146.65    8.06
   0   4 -13  543.01   26.51
   0   4 -13  524.86   26.36
   0   4 -13  518.43   26.16
   0   4 -12    7.91    0.89
   0   4 -12    6.70    0.99
   0   4 -12    8.66    1.20
   0   4 -12    8.46    1.06
   0   4 -12    8.68    1.01
   0   4 -11   76.58    4.42
   0   4 -11   76.08    4.43
   0   4 -11   76.48    4.41
   0   4 -11   75.18    4.22
   0   4 -11   70.72    4.25
   0   4 -10   17.58    1.62
   0   4 -10   16.95    1.44
   0   4 -10   19.32    1.52
   0   4 -10   15.99    1.34
   0   4  -9  282.62   14.40
   0   4  -7   15.39    1.43
   0   4  -6  639.02   31.96
   0   4  -5    1.38    0.59
   0   4  -4  315.07   14.44
   0  -4   4  262.61   13.69
   0   4  -3   20.18    1.80
   0   4  -3   19.65    1.76
   0   4  -2   56.29    3.15
   0   4  -2   56.49    3.26
   0   4  -1   90.92    5.21
   0   4  -1   87.63    5.34
   0   4  -1   91.69    5.32
   0   4   0   25.04    2.04
   0   4   1  529.15   26.58
   0   4   2   24.56    1.90
   0   4   2   24.79    2.00
   0   4   3  831.86   41.36
   0   4   3  833.26   41.21
   0   4   4  392.85   19.08
   0   4   4  358.84   18.81
   0   4   5    5.21    0.76
   0   4   5    7.30    0.97
   0   4   6  486.90   24.62
   0   4   6  498.49   24.84
   0   4   7    6.90    0.98
   0   4   7    7.33    0.96
   0  -4  -8  572.09   28.46
   0   4   8  539.39   27.25
   0   4   8  532.43   27.23
   0  -4  -9   13.67    2.11
   0   4   9   14.54    1.41
   0   4   9   15.79    1.54
   0  -4 -10   84.73    6.07
   0   4  10   75.97    4.89
   0  -4 -11  260.01   15.23
   0  -4 -12   27.58    3.36
   0   4  12   27.07    1.89
   0  -4 -13  307.78   17.40
   0  -4 -13  318.26   16.97
   0   4  13  281.29   14.75
   0  -4 -14    0.27    0.91
   0   4  14    0.38    0.46
   0  -4 -14    1.59    1.27
   0  -4 -15  115.21    8.28
   0  -4 -15  113.91    8.73
   0   4  15  113.41    6.28
   0   4  16   35.82    2.51
   0  -4 -16   39.21    4.10
   0  -4 -16   39.67    4.51
   0  -4 -17    0.34    0.86
   0   4  17   -0.07    0.50
   0  -4 -17    1.11    0.81
   0   4  18   62.78    3.77
   0   4  19    6.88    0.89
   0   4  20   85.19    4.72
   0   4  21    5.98    0.72
   0   4  22    8.12    0.73
   0   4  22    6.52    0.68
   0   4  23    3.57    0.55
   0   4  23    3.37    0.40
   0   5 -19   97.68    4.93
   0   5 -19   90.71    4.90
   0   5 -18    0.34    0.43
   0   5 -18    0.48    0.40
   0   5 -17   63.05    3.66
   0   5 -17   62.42    3.68
   0   5 -16    8.30    0.99
   0   5 -16    7.74    0.98
   0   5 -15   21.23    1.76
   0   5 -15   20.68    1.70
   0   5 -14  119.25    6.24
   0   5 -14  105.94    5.89
   0   5 -14  107.24    6.06
   0   5 -13   13.38    1.36
   0   5 -13   13.07    1.19
   0   5 -12  524.56   25.38
   0   5 -12  489.42   25.13
   0   5 -11    1.00    0.51
   0   5 -11    0.22    0.34
   0   5 -11    0.30    0.51
   0   5 -10   77.83    4.38
   0   5 -10   77.14    4.23
   0   5 -10   72.57    4.23
   0   5 -10   68.70    4.06
   0   5  -9  145.05    7.41
   0   5  -9  127.62    7.19
   0   5  -9  139.25    7.27
   0   5  -9  136.65    7.16
   0   5  -8    2.91    0.56
   0   5  -8    2.45    0.47
   0   5  -8    2.12    0.50
   0   5  -8    2.93    0.59
   0   5  -7  389.55   20.10
   0   5  -6    0.11    0.49
   0   5  -5  400.41   20.72
   0   5  -4    9.73    1.31
   0   5  -3  114.22    6.70
   0   5  -3  110.62    6.59
   0   5  -2    2.14    0.72
   0   5  -2    1.92    0.74
   0   5  -1    0.69    0.60
   0   5  -1    0.60    0.70
   0   5  -1    0.66    0.69
   0   5   0  578.61   29.35
   0   5   1    5.74    1.10
   0   5   1    7.02    1.11
   0   5   2 1037.74   50.95
   0   5   2 1011.89   50.82
   0   5   3  245.11   12.99
   0   5   3  242.17   12.84
   0   5   4   51.18    3.58
   0   5   4   54.64    3.49
   0   5   5  168.01    9.08
   0   5   5  168.66    9.33
   0   5   6   23.32    1.93
   0   5   6   26.36    2.20
   0   5   7  321.06   17.11
   0   5   7  354.93   17.51
   0   5   8    0.33    0.57
   0   5   8   -0.33    0.47
   0  -5  -8    0.19    0.80
   0   5   9   69.59    4.55
   0  -5  -9   73.19    5.46
   0  -5 -10  263.58   15.26
   0   5  11   12.06    1.08
   0  -5 -11   14.22    2.22
   0   5  11    9.47    0.97
   0  -5 -12  332.47   18.08
   0   5  12  304.44   15.54
   0  -5 -13    7.08    1.72
   0   5  13    5.73    0.75
   0  -5 -13    8.51    1.83
   0  -5 -14   43.18    4.27
   0  -5 -14   36.59    4.24
   0   5  14   37.66    2.45
   0   5  14   38.61    2.58
   0  -5 -15   17.29    2.89
   0   5  15   24.59    1.82
   0  -5 -15   22.25    3.09
   0   5  15   20.73    1.60
   0   5  16   21.94    1.78
   0  -5 -16   20.09    2.99
   0  -5 -16   18.40    3.01
   0   5  17  113.91    6.15
   0  -5 -17   96.18    7.95
   0   5  18    0.92    0.59
   0   5  19   55.22    3.36
   0   5  20    4.26    1.05
   0   5  20    5.63    0.78
   0   5  21    1.46    0.45
   0   5  21    1.51    0.74
   0   5  22   26.89    1.61
   0   5  22   23.31    1.83
   0   5  22   26.16    1.64
   0   5  23    1.11    0.23
   0   6 -18   50.78    2.94
   0   6 -18   56.76    3.01
   0   6 -17    5.29    0.68
   0   6 -17    6.06    0.74
   0   6 -16   11.90    1.14
   0   6 -16   12.41    1.16
   0   6 -15   16.79    1.46
   0   6 -14    0.29    0.51
   0   6 -14    0.40    0.43
   0   6 -13  170.37    8.97
   0   6 -13  164.28    8.77
   0   6 -12    0.07    0.58
   0   6 -12    0.14    0.34
   0   6 -12   -0.56    0.49
   0   6 -12   -0.16    0.54
   0   6 -11   31.89    2.36
   0   6 -11   31.62    2.11
   0   6 -11   33.90    2.26
   0   6 -11   32.50    2.26
   0   6 -10   37.19    2.45
   0   6 -10   39.94    2.56
   0   6 -10   39.84    2.70
   0   6  -9   48.16    2.90
   0   6  -9   47.62    3.08
   0   6  -9   46.48    2.93
   0   6  -8  116.61    6.13
   0   6  -8  107.28    5.95
   0   6  -8  106.96    5.90
   0   6  -7   14.57    1.16
   0   6  -7   13.58    1.25
   0   6  -7   13.25    1.89
   0   6  -7   14.66    1.18
   0   6  -7   10.29    1.52
   0   6  -7   11.80    1.09
   0   6  -6  642.12   32.29
   0   6  -6  669.14   32.45
   0   6  -6  655.07   33.38
   0   6  -5   20.23    2.18
   0   6  -4   66.48    4.70
   0   6  -3  344.14   18.51
   0   6  -3  361.21   18.74
   0   6  -2   45.40    3.51
   0   6  -2   43.43    3.34
   0   6  -1   44.70    3.49
   0   6  -1   44.76    3.36
   0   6   0    6.16    1.26
   0   6   0    5.03    1.09
   0   6   1  432.11   22.43
   0   6   2  489.80   25.19
   0   6   3   21.65    2.15
   0   6   3   19.14    1.95
   0   6   4 1220.08   61.71
   0   6   4 1258.81   61.52
   0   6   5    0.21    0.54
   0   6   5   -0.13    0.59
   0   6   6   58.26    3.91
   0   6   6   63.68    4.32
   0   6   7    1.61    0.74
   0   6   8   59.00    4.23
   0  -6  -9  284.28   15.77
   0   6   9  275.29   13.86
   0   6   9  265.41   14.84
   0   6  10   17.40    1.93
   0   6  10   16.43    1.31
   0   6  10   15.89    1.30
   0  -6 -10   15.06    2.31
   0   6  11  414.84   21.10
   0   6  11  426.40   21.10
   0  -6 -11  432.21   23.30
   0   6  12    2.29    0.57
   0  -6 -12    3.49    1.39
   0   6  12    2.03    0.55
   0   6  13   66.52    4.04
   0   6  13   73.41    4.14
   0  -6 -13   74.12    6.11
   0   6  14   40.31    2.66
   0  -6 -14   40.89    4.44
   0  -6 -14   45.94    4.59
   0  -6 -15   15.18    2.61
   0   6  15   16.54    1.40
   0  -6 -15   14.52    2.52
   0  -6 -16   76.24    6.74
   0  -6 -16   71.69    6.82
   0   6  16   91.11    4.86
   0   6  17    1.31    0.63
   0   6  18   87.46    5.01
   0   6  18   87.72    5.39
   0   6  19    1.62    0.57
   0   6  19    2.22    0.85
   0   6  20    6.80    1.10
   0   6  20    7.65    0.87
   0   6  21   39.99    2.84
   0   6  21   51.07    2.74
   0   6  22    1.39    0.32
   0   6  22    1.14    0.30
   0   6  22    0.73    0.41
   0   7 -17   21.39    1.46
   0   7 -17   24.40    1.51
   0   7 -16   14.77    1.17
   0   7 -15    2.50    0.62
   0   7 -14  107.42    5.93
   0   7 -14  106.74    5.87
   0   7 -14  107.42    5.74
   0   7 -13    8.63    1.07
   0   7 -13   10.54    1.02
   0   7 -13    8.83    1.12
   0   7 -12   67.94    4.05
   0   7 -12   71.60    4.36
   0   7 -12   77.65    4.30
   0   7 -12   75.55    4.23
   0   7 -11  228.84   11.91
   0   7 -11  239.92   12.21
   0   7 -11  235.67   12.02
   0   7 -11  227.93   12.03
   0   7 -10   20.97    1.66
   0   7 -10   22.87    1.87
   0   7 -10   20.98    1.74
   0   7 -10   23.14    1.74
   0   7  -9    1.75    0.59
   0   7  -9    2.95    0.61
   0   7  -9    1.87    0.64
   0   7  -9    2.91    0.69
   0   7  -8    1.36    0.62
   0   7  -8    0.81    0.56
   0   7  -8    2.04    0.61
   0   7  -8    1.57    0.54
   0   7  -7  476.42   25.12
   0   7  -7  515.13   25.15
   0   7  -7  532.69   25.37
   0   7  -7  502.86   25.18
   0   7  -6   38.59    3.44
   0   7  -6   39.00    2.50
   0   7  -6   39.06    2.50
   0   7  -6   39.30    2.48
   0   7  -6   40.18    2.65
   0   7  -6   34.42    2.88
   0   7  -5    7.56    0.89
   0   7  -5    7.86    0.99
   0   7  -5    8.77    0.88
   0   7  -5    7.77    1.76
   0   7  -5    6.51    1.38
   0   7  -5    8.03    0.83
   0   7  -5    8.04    0.86
   0   7  -5    8.28    0.90
   0   7  -4  157.77    8.47
   0   7  -4  160.82    8.35
   0   7  -4  170.00    8.44
   0   7  -4  153.15    8.65
   0   7  -4  162.37    8.39
   0   7  -4  165.48    9.84
   0   7  -4  162.89    8.59
   0   7  -3    8.10    1.42
   0   7  -3    5.83    0.73
   0   7  -3    7.12    0.78
   0   7  -3    6.48    1.61
   0   7  -3    7.67    0.90
   0   7  -2   85.49    5.82
   0   7  -2   84.88    4.58
   0   7  -2   83.41    5.62
   0   7  -1    2.51    0.87
   0   7  -1    2.69    0.91
   0   7   0   53.27    4.09
   0   7   0   48.75    3.89
   0  -7  -1   87.29    5.54
   0   7   1  102.04    6.27
   0   7   2   47.74    3.71
   0   7   3  157.75    9.23
   0   7   3  162.75    9.51
   0   7   4    8.08    1.39
   0   7   4    6.17    1.18
   0   7   5  324.05   17.46
   0   7   5  344.71   17.96
   0   7   6  103.22    6.73
   0   7   7    1.15    0.78
   0   7   8  108.43    5.75
   0   7   8  101.03    6.85
   0   7   9    6.30    1.31
   0   7   9    5.38    0.93
   0   7   9    6.08    0.76
   0  -7  -9    4.10    1.27
   0   7   9    5.92    0.72
   0   7  10   94.68    5.94
   0   7  10  109.57    5.67
   0   7  10   99.46    6.76
   0  -7 -10   91.44    7.21
   0   7  10  110.65    5.71
   0  -7 -11    5.63    1.60
   0   7  11    7.15    0.87
   0  -7 -11    8.52    1.71
   0   7  11    6.19    0.82
   0   7  11    5.69    1.08
   0   7  12    1.31    0.50
   0   7  12   -0.06    0.48
   0   7  12    1.31    0.79
   0  -7 -12    1.05    0.98
   0  -7 -12    0.28    1.02
   0  -7 -13   46.79    4.77
   0   7  13   47.83    3.61
   0  -7 -13   55.43    5.21
   0   7  13   57.48    3.32
   0   7  13   52.92    3.27
   0  -7 -14   29.31    3.75
   0   7  14   37.54    2.46
   0   7  14   36.06    2.46
   0   7  14   34.65    2.83
   0   7  15  124.16    6.45
   0   7  15  121.38    6.48
   0   7  15  107.53    6.80
   0   7  16   -0.20    0.78
   0   7  16   -0.27    0.49
   0   7  16    0.43    0.47
   0   7  17   33.73    2.29
   0   7  17   35.46    2.71
   0   7  18   11.76    1.43
   0   7  19    2.56    0.80
   0   7  20   58.61    3.03
   0   7  20   41.67    3.04
   0   7  21   -0.12    0.27
   0   7  21   -0.03    0.33
   0   7  22   17.25    1.10
   0   7  22   18.31    1.15
   0   8 -16    0.23    0.24
   0   8 -15  162.93    8.44
   0   8 -15  165.56    8.45
   0   8 -14    6.15    0.71
   0   8 -14    7.24    0.85
   0   8 -14    7.14    0.83
   0   8 -13   80.97    4.44
   0   8 -13   76.71    4.48
   0   8 -13   77.25    4.34
   0   8 -12   76.48    4.56
   0   8 -12   90.48    4.91
   0   8 -12   87.28    4.73
   0   8 -12   86.85    4.78
   0   8 -11    4.43    0.77
   0   8 -11    5.05    0.71
   0   8 -11    5.19    0.85
   0   8 -11    3.91    0.84
   0   8 -10   99.77    5.61
   0   8 -10  103.74    5.71
   0   8 -10  102.08    5.85
   0   8 -10  103.04    5.66
   0   8  -9    5.21    0.81
   0   8  -9    4.31    0.88
   0   8  -9    4.73    0.85
   0   8  -9    5.28    0.85
   0   8  -8   50.32    3.45
   0   8  -8   57.55    3.41
   0   8  -8   59.43    3.47
   0   8  -8   55.60    3.60
   0   8  -7   21.70    1.70
   0   8  -7   20.00    1.83
   0   8  -7   20.89    1.81
   0   8  -7   20.21    1.64
   0   8  -6  180.95    9.35
   0   8  -6  192.18    9.44
   0   8  -6  156.50   10.67
   0   8  -6  165.64    9.39
   0   8  -6  170.37    9.24
   0   8  -6  185.41    9.37
   0   8  -6  192.49    9.63
   0   8  -5  368.56   19.44
   0   8  -5  410.80   19.66
   0   8  -5  382.70   19.30
   0   8  -5  396.62   21.13
   0   8  -5  353.46   19.41
   0   8  -5  411.25   19.45
   0   8  -5  392.69   19.38
   0   8  -4    2.24    0.52
   0   8  -4    2.96    0.74
   0   8  -4    0.42    0.79
   0   8  -4    2.28    0.70
   0   8  -4    2.21    1.11
   0   8  -4    2.86    0.59
   0   8  -4    1.87    0.59
   0   8  -3  190.54    9.52
   0   8  -3  182.37    9.25
   0   8  -3  179.90    9.20
   0   8  -3  160.33    9.34
   0   8  -3  180.81    9.21
   0   8  -3  169.65   10.77
   0   8  -3  174.81    9.18
   0   8  -3  176.14    9.42
   0   8  -2   13.51    1.16
   0   8  -2   13.71    1.18
   0   8  -2   15.54    2.18
   0   8  -2   14.49    1.19
   0   8  -2   16.05    1.27
   0   8  -2   14.21    1.39
   0   8  -2   12.43    1.73
   0   8  -2   13.55    1.40
   0   8  -1   52.96    4.52
   0   8  -1   56.15    3.58
   0   8  -1   57.55    3.29
   0   8  -1   57.72    3.26
   0   8  -1   60.52    3.58
   0   8  -1   50.71    4.19
   0   8  -1   54.29    3.23
   0   8  -1   55.45    3.27
   0   8   0   25.00    1.74
   0   8   0   25.95    2.03
   0   8   0   29.47    2.17
   0   8   0   26.87    1.77
   0   8   0   25.01    2.83
   0   8   0   27.07    1.81
   0   8   0   28.89    2.77
   0   8   1   12.47    1.01
   0   8   1   13.63    1.84
   0   8   1   10.96    0.97
   0   8   1   11.34    1.29
   0   8   1   11.87    1.25
   0   8   2  165.22    8.28
   0   8   2  146.84    7.80
   0   8   2  147.29    8.17
   0   8   2  153.32    9.35
   0   8   3   -0.07    0.48
   0  -8  -3   -0.31    0.64
   0   8   3    0.38    0.74
   0   8   3    0.11    0.28
   0   8   3    0.52    0.33
   0   8   3    0.33    0.31
   0   8   3    0.87    0.62
   0   8   4   52.58    3.21
   0  -8  -4   55.57    4.34
   0   8   4   59.96    4.57
   0   8   4   58.30    3.24
   0   8   5   48.24    4.09
   0   8   5   47.26    2.84
   0   8   5   49.24    3.21
   0   8   5   47.81    2.85
   0   8   6    1.18    0.40
   0   8   6    0.65    0.38
   0   8   6    0.77    0.82
   0   8   6    1.17    0.73
   0   8   7  208.73   12.47
   0   8   7  214.41   10.91
   0   8   7  213.72   10.96
   0   8   8    3.78    1.15
   0   8   8    2.00    0.71
   0   8   8    2.05    0.47
   0   8   8    2.36    0.51
   0   8   9   47.85    2.91
   0   8   9   50.36    2.96
   0   8   9   49.27    3.28
   0   8   9   52.10    4.29
   0  -8  -9   52.92    4.69
   0   8  10   17.15    1.69
   0  -8 -10   21.43    2.79
   0   8  10   15.22    2.23
   0   8  10   18.88    1.42
   0   8  10   18.45    1.39
   0   8  10   17.15    1.45
   0   8  11    0.83    0.48
   0  -8 -11    0.28    0.88
   0   8  11    0.51    0.69
   0   8  11    0.38    0.37
   0   8  12   20.52    1.60
   0   8  12   21.41    1.69
   0  -8 -12   18.41    2.82
   0   8  12   20.26    1.91
   0   8  13   -0.73    0.82
   0  -8 -13    0.31    0.90
   0   8  13    0.54    0.48
   0   8  13    0.06    0.47
   0   8  14  164.16    8.48
   0   8  14  139.01    8.64
   0   8  14  170.88    8.45
   0  -8 -14  144.69   10.65
   0   8  15    0.62    0.78
   0   8  15    1.20    0.57
   0   8  15    1.21    0.56
   0   8  16   47.81    2.95
   0   8  16   51.01    2.98
   0   8  17    9.88    1.28
   0   8  17   14.15    1.23
   0   8  17   11.26    1.12
   0   8  18    2.87    0.62
   0   8  18    1.25    0.47
   0   8  18    2.17    0.71
   0   8  19   67.60    3.18
   0   8  19   41.97    2.94
   0   8  21    8.47    0.67
   0   8  21   10.53    0.99
   0   9 -15    0.10    0.28
   0   9 -14   57.46    3.00
   0   9 -14   52.81    2.97
   0   9 -14   49.53    2.84
   0   9 -13   68.31    3.93
   0   9 -13   72.43    3.89
   0   9 -13   68.40    3.81
   0   9 -12    0.35    0.39
   0   9 -12    0.69    0.51
   0   9 -12    0.97    0.52
   0   9 -11   90.87    4.90
   0   9 -11   82.57    4.76
   0   9 -11   89.03    5.01
   0   9 -11   88.93    4.84
   0   9 -10   12.62    1.32
   0   9 -10   12.31    1.15
   0   9 -10   12.79    1.22
   0   9 -10   11.83    1.12
   0   9  -9    3.01    0.78
   0   9  -9    2.61    0.65
   0   9  -9    3.38    0.72
   0   9  -8    2.19    0.60
   0   9  -8    2.08    0.74
   0   9  -8    3.56    0.76
   0   9  -7   16.19    1.48
   0   9  -7   20.73    1.56
   0   9  -7   18.08    1.56
   0   9  -7   17.88    1.75
   0   9  -6  468.35   22.99
   0   9  -6  469.37   23.04
   0   9  -6  463.59   22.99
   0   9  -6  430.04   22.85
   0   9  -6  477.45   23.31
   0   9  -5    2.07    1.09
   0   9  -5    1.92    0.80
   0   9  -5    0.80    0.63
   0   9  -5    1.56    0.59
   0   9  -5    2.02    0.65
   0   9  -5    0.78    0.50
   0   9  -4  235.85   13.09
   0   9  -4  261.73   13.00
   0   9  -4  261.65   13.32
   0   9  -4  244.07   12.92
   0   9  -4  269.06   13.05
   0   9  -4  265.63   13.00
   0   9  -4  229.02   14.68
   0   9  -4  246.44   12.94
   0   9  -3   29.41    2.33
   0   9  -3   32.01    2.43
   0   9  -3   30.99    2.13
   0   9  -3   28.01    3.28
   0   9  -3   31.39    2.12
   0   9  -3   31.70    2.16
   0   9  -3   31.96    2.12
   0   9  -2   30.07    2.37
   0   9  -2   33.16    3.49
   0   9  -2   31.63    2.15
   0   9  -2   32.26    2.11
   0   9  -2   29.55    2.09
   0   9  -2   31.86    2.43
   0   9  -2   32.09    2.13
   0   9  -1  139.34    8.81
   0   9  -1  131.13    6.92
   0   9  -1  130.29    6.94
   0   9  -1  127.71    6.96
   0   9  -1  128.19    7.29
   0   9  -1  134.84    7.33
   0   9  -1  129.02    6.95
   0   9   0    8.20    1.09
   0   9   0    7.75    0.86
   0   9   0    7.06    1.15
   0   9   0    8.57    0.91
   0   9   0    6.87    1.65
   0   9   0    8.46    0.87
   0   9   1  142.42    7.93
   0   9   1  139.59    7.52
   0   9   1  145.01    7.53
   0   9   1  142.38    7.60
   0   9   1  153.82    8.03
   0   9   2    0.05    0.33
   0   9   2   -0.05    0.34
   0   9   2    0.08    0.57
   0   9   2    0.54    0.35
   0   9   2   -0.51    0.75
   0   9   3  169.55    8.44
   0   9   3  137.91    9.39
   0   9   3  160.29    8.03
   0   9   3  151.13    7.90
   0   9   3  147.80    7.94
   0   9   3  142.27    8.26
   0   9   4   79.03    4.58
   0   9   4   80.42    4.96
   0   9   4   84.89    4.65
   0   9   4   94.15    5.09
   0   9   4   81.64    6.12
   0   9   4   81.26    4.52
   0   9   4   81.85    6.22
   0   9   5    1.01    0.43
   0   9   5    1.08    0.46
   0   9   5    1.07    0.75
   0   9   5    0.57    0.69
   0   9   5    1.80    0.98
   0  -9  -5    0.61    0.70
   0   9   6  159.72    8.02
   0   9   6  149.93    8.37
   0  -9  -6  151.86    9.71
   0   9   6  148.13    7.99
   0   9   6  142.24    9.64
   0   9   7   65.08    5.17
   0   9   7   57.24    3.57
   0   9   7   62.65    4.00
   0  -9  -7   59.88    5.15
   0   9   7   62.35    3.58
   0   9   8  308.76   15.82
   0   9   8  314.51   15.75
   0  -9  -8  294.44   17.75
   0   9   8  317.93   16.16
   0   9   8  307.58   17.63
   0   9   9    0.11    0.41
   0   9   9    1.60    1.05
   0   9   9    0.45    0.35
   0   9   9    0.82    0.75
   0  -9  -9    0.79    0.91
   0   9  10   76.64    6.27
   0   9  10   93.84    4.94
   0  -9 -10   93.77    7.07
   0   9  10   86.37    4.83
   0   9  10   86.51    5.36
   0   9  11    9.88    1.32
   0   9  11   11.35    1.16
   0   9  11   11.36    1.06
   0  -9 -11   11.02    2.20
   0   9  12   13.22    1.14
   0  -9 -12   11.34    2.25
   0   9  12   10.76    1.21
   0   9  12   10.43    1.32
   0   9  13  112.71    5.53
   0   9  13   92.86    5.25
   0  -9 -13  100.70    7.69
   0   9  13   81.87    5.47
   0   9  14   13.76    1.35
   0   9  14   15.59    1.31
   0   9  14   12.26    1.48
   0   9  15   57.97    3.26
   0   9  15   54.41    3.11
   0   9  16    4.20    0.69
   0   9  16    5.26    0.77
   0   9  17    2.02    0.54
   0   9  17    0.53    0.59
   0   9  17    0.82    0.43
   0   9  18    9.29    0.92
   0   9  18   11.27    0.97
   0   9  18    8.78    1.02
   0   9  19   -0.56    0.58
   0   9  19   -0.22    0.37
   0   9  19    0.04    0.32
   0   9  20   23.10    1.77
   0   9  20   29.28    1.65
   0  10 -13    0.07    0.25
   0  10 -13   -0.17    0.24
   0  10 -12   73.63    3.95
   0  10 -12   76.48    4.00
   0  10 -12   70.46    4.02
   0  10 -11    5.32    0.61
   0  10 -11    4.97    0.69
   0  10 -11    5.53    0.67
   0  10 -11    6.23    0.77
   0  10 -10   31.72    2.23
   0  10 -10   31.88    2.13
   0  10 -10   34.15    2.09
   0  10  -9   71.47    4.00
   0  10  -9   65.29    4.16
   0  10  -9   73.65    4.05
   0  10  -8    6.56    1.05
   0  10  -8    8.82    0.93
   0  10  -8    7.37    0.96
   0  10  -8    9.45    0.98
   0  10  -7    4.55    0.79
   0  10  -7    5.36    0.79
   0  10  -7    4.46    0.93
   0  10  -7    7.15    0.87
   0  10  -6    7.80    0.93
   0  10  -6    6.35    1.06
   0  10  -6    8.30    0.95
   0  10  -6    5.52    0.74
   0  10  -5   48.62    3.14
   0  10  -5   54.91    3.26
   0  10  -5   53.03    3.54
   0  10  -5   54.02    3.22
   0  10  -4    9.35    1.27
   0  10  -4    9.84    1.05
   0  10  -4    9.49    1.02
   0  10  -4    9.45    1.02
   0  10  -4    4.35    1.52
   0  10  -4    6.70    1.06
   0  10  -4   12.08    1.12
   0  10  -3    1.51    0.57
   0  10  -3    0.95    0.50
   0  10  -3    0.82    0.51
   0  10  -3    0.64    0.69
   0  10  -3    1.52    0.54
   0  10  -3    0.46    0.65
   0  10  -3    1.48    0.77
   0  10  -2   30.73    2.18
   0  10  -2   29.24    2.40
   0  10  -2   32.64    2.16
   0  10  -2   28.49    3.44
   0  10  -2   33.15    2.52
   0  10  -2   31.22    2.16
   0  10  -2   32.51    2.18
   0  10  -2   32.40    2.16
   0  10  -1   10.05    1.88
   0  10  -1    7.15    0.88
   0  10  -1    7.54    1.18
   0  10  -1    8.00    0.91
   0  10  -1    8.76    0.93
   0  10  -1    7.80    1.16
   0  10   0  102.29    5.54
   0  10   0  100.98    5.51
   0  10   0   83.87    7.07
   0  10   0   99.39    5.57
   0  10   0  103.57    5.97
   0  10   0  105.91    5.99
   0  10   1    0.37    0.44
   0  10   1    0.96    0.50
   0  10   1    1.63    0.47
   0  10   1    0.90    0.69
   0  10   1   -0.76    0.78
   0  10   1    0.28    0.72
   0  10   2   20.44    1.52
   0  10   2   21.57    1.95
   0  10   2   21.04    1.49
   0  10   2   17.32    1.43
   0  10   3   12.02    1.11
   0  10   3   15.94    1.67
   0  10   3   14.48    1.28
   0  10   3   12.99    1.17
   0  10   4    3.91    0.64
   0  10   4    2.72    0.93
   0  10   4    3.61    0.58
   0  10   4    2.28    0.77
   0  10   4    4.32    0.72
   0  10   4    3.02    1.31
   0  10   5   46.82    4.51
   0  10   5   53.77    3.10
   0  10   5   52.08    3.43
   0  10   5   47.17    2.99
   0  10   5   43.94    3.24
   0  10   6   71.07    5.71
   0  10   6   70.15    4.35
   0  10   6   57.42    4.20
   0  10   6   68.64    3.99
   0  10   6   74.66    4.03
   0  10   7  197.33   12.54
   0  10   7  195.20   10.86
   0  10   7  206.30   10.59
   0  10   7  208.85   10.58
   0  10   8    3.74    0.94
   0 -10  -8    4.29    1.23
   0  10   8    2.38    0.61
   0  10   8    2.30    0.60
   0  10   8    3.47    1.31
   0  10   8    2.66    0.63
   0  10   9   -0.53    0.76
   0  10   9    0.23    0.44
   0  10   9    0.26    0.46
   0 -10  -9    0.26    0.90
   0  10   9   -0.09    0.73
   0  10   9    1.22    1.04
   0 -10 -10   21.28    2.87
   0  10  10   17.41    1.82
   0  10  10   17.56    1.84
   0  10  10   19.67    1.52
   0  10  11   -0.09    0.80
   0  10  11   -0.13    0.40
   0  10  11   -0.62    0.82
   0  10  11    0.05    0.44
   0  10  12   67.88    4.82
   0  10  12   90.68    4.95
   0  10  12   91.96    4.73
   0  10  12   74.36    4.37
   0  10  13   -0.26    0.51
   0  10  13    0.34    0.77
   0  10  13    0.97    0.78
   0  10  13    0.05    0.35
   0  10  14    7.58    1.25
   0  10  14   11.60    1.15
   0  10  14    8.12    0.88
   0  10  14    8.79    1.24
   0  10  15   15.15    1.60
   0  10  15   19.31    1.47
   0  10  15   15.66    1.53
   0  10  15   15.29    1.24
   0  10  16    3.83    0.82
   0  10  16    3.83    0.57
   0  10  16    3.49    0.66
   0  10  16    3.75    0.88
   0  10  17   19.75    1.78
   0  10  17   23.40    1.76
   0  10  17   25.63    1.58
   0  10  17   24.77    1.68
   0  10  18    2.70    0.42
   0  10  18    3.46    0.64
   0  10  18    1.97    0.54
   0  10  19   13.96    1.20
   0  10  19   18.10    1.09
   0  11 -11   22.32    1.39
   0  11 -10   19.29    1.27
   0  11 -10   18.80    1.36
   0  11  -9   18.27    1.30
   0  11  -9   18.37    1.28
   0  11  -9   15.68    1.36
   0  11  -8   39.48    2.40
   0  11  -8   40.17    2.42
   0  11  -8   38.45    2.57
   0  11  -7   -0.05    0.42
   0  11  -7    0.41    0.43
   0  11  -7    0.33    0.53
   0  11  -6    0.07    0.57
   0  11  -6    0.15    0.43
   0  11  -5    0.10    0.47
   0  11  -5    0.10    0.41
   0  11  -5    0.16    0.56
   0  11  -4   13.89    1.50
   0  11  -4   14.22    1.24
   0  11  -4   15.12    1.28
   0  11  -4   13.65    1.21
   0  11  -3   57.88    3.30
   0  11  -3   57.64    3.26
   0  11  -3   44.37    3.32
   0  11  -3   54.69    3.25
   0  11  -3   55.94    3.60
   0  11  -2    1.63    0.71
   0  11  -2    1.50    0.56
   0  11  -2    1.51    0.55
   0  11  -2    1.33    0.51
   0  11  -2    1.32    0.78
   0  11  -1   95.45    5.35
   0  11  -1   93.22    5.67
   0  11  -1   99.65    5.32
   0  11  -1   93.00    5.59
   0  11  -1   98.01    5.32
   0  11   0    3.61    0.63
   0  11   0    3.28    0.69
   0  11   0    2.06    0.86
   0  11   0    3.56    0.63
   0  11   1   18.65    1.58
   0  11   1   16.81    2.70
   0  11   1   21.06    1.56
   0  11   1   19.22    1.60
   0  11   1   19.87    1.50
   0  11   1   23.54    1.99
   0  11   2    7.54    1.22
   0  11   2    7.67    0.82
   0  11   2    8.92    0.91
   0  11   3    0.82    0.52
   0  11   3   -0.37    0.70
   0  11   3    0.50    0.43
   0  11   3    0.25    0.35
   0  11   3   -0.40    0.45
   0  11   4   17.12    2.58
   0  11   4   17.66    1.79
   0  11   4   15.77    1.30
   0  11   4   15.76    1.35
   0  11   4   18.79    1.52
   0  11   4   18.08    1.50
   0  11   5    0.31    0.46
   0  11   5    0.45    0.75
   0  11   5   -0.53    0.81
   0  11   5    0.34    0.42
   0  11   5    0.19    0.45
   0  11   6   26.28    3.32
   0  11   6   27.34    1.93
   0  11   6   30.52    2.03
   0  11   6   31.82    2.38
   0  11   7    5.01    0.82
   0  11   7    5.04    0.95
   0  11   7    4.87    1.07
   0  11   7    7.20    0.88
   0  11   8    8.45    0.98
   0  11   8    9.60    1.04
   0  11   8    7.60    1.16
   0  11   9   76.90    4.08
   0  11   9   74.92    4.12
   0  11  10    5.45    1.05
   0  11  10    4.88    1.05
   0  11  10    6.06    0.89
   0  11  10    6.77    0.82
   0  11  11   70.13    3.99
   0  11  11   65.36    3.53
   0  11  12   -0.42    0.69
   0  11  12   -0.39    0.76
   0  11  13   21.94    1.64
   0  11  13   21.41    1.79
   0  11  14   31.26    2.01
   0  11  14   27.26    2.08
   0  11  15    0.89    0.47
   0  11  15    0.85    0.64
   0  11  16   51.01    3.11
   0  11  16   52.63    3.05
   0  11  17    0.50    0.33
   0  11  17    0.71    0.41
   0  12  -9   28.74    1.74
   0  12  -9   34.58    1.81
   0  12  -8   -0.08    0.27
   0  12  -8   -0.16    0.26
   0  12  -7   22.22    1.47
   0  12  -7   22.51    1.47
   0  12  -6   -0.18    0.38
   0  12  -5   19.50    1.42
   0  12  -5   19.42    1.39
   0  12  -4   90.08    4.94
   0  12  -4   93.08    4.97
   0  12  -3    1.97    0.51
   0  12  -3    2.20    0.49
   0  12  -3    2.21    0.56
   0  12  -2   66.40    3.62
   0  12  -2   60.96    3.60
   0  12  -2   61.23    3.55
   0  12  -1    0.62    0.47
   0  12  -1    0.31    0.56
   0  12  -1    0.68    0.46
   0  12  -1    0.31    0.41
   0  12   0   66.74    3.71
   0  12   0   56.08    3.90
   0  12   0   69.05    3.80
   0  12   0   65.53    3.66
   0  12   1   34.06    2.33
   0  12   1   36.12    2.25
   0  12   1   35.24    2.56
   0  12   1   33.52    2.15
   0  12   2    1.64    0.77
   0  12   2    0.97    0.42
   0  12   3   29.55    1.95
   0  12   3   30.77    2.37
   0  12   4    1.76    0.42
   0  12   4    1.54    0.80
   0  12   4    0.65    0.52
   0  12   5   91.17    4.77
   0  12   5   89.23    5.05
   0  12   6   12.88    1.19
   0  12   6   14.93    1.33
   0  12   6   13.51    1.55
   0  12   7    3.49    0.97
   0  12   7    3.12    0.63
   0  12   7    3.42    0.68
   0  12   8   27.97    1.91
   0  12   8   25.98    2.19
   0  12   8   25.86    1.89
   0  12   9    0.20    0.41
   0  12   9    0.38    0.40
   0  12  10   41.97    2.62
   0  12  10   45.10    2.76
   0  12  11    0.66    0.36
   0  12  11    0.26    0.46
   0  12  11   -0.07    0.66
   0  12  12   17.39    1.55
   0  12  12   15.18    1.32
   0  12  13   11.90    1.27
   0  12  14   -0.08    0.39
   0  12  14    0.99    0.58
   0  12  15   21.75    1.74
   0  12  15   29.16    1.73
   0  12  16    0.39    0.31
   0  13  -6    0.63    0.23
   0  13  -5    7.33    0.67
   0  13  -5    7.63    0.64
   0  13  -4    0.18    0.31
   0  13  -4    0.10    0.28
   0  13  -3   62.11    3.25
   0  13  -3   55.76    3.18
   0  13  -2    3.41    0.48
   0  13  -2    3.09    0.51
   0  13  -2    3.08    0.47
   0  13  -1    5.54    0.65
   0  13  -1    5.65    0.66
   0  13  -1    4.43    0.56
   0  13   0   12.42    1.08
   0  13   0   13.56    1.04
   0  13   1    2.13    0.50
   0  13   1    1.41    0.42
   0  13   2   47.21    2.65
   0  13   2   43.55    2.86
   0  13   3    3.34    0.49
   0  13   3    2.33    0.70
   0  13   4   23.36    1.99
   0  13   4   31.15    1.93
   0  13   5    8.31    0.88
   0  13   5    6.30    0.97
   0  13   6   -0.05    0.41
   0  13   6    1.18    0.63
   0  13   7   45.11    2.63
   0  13   7   39.21    2.79
   0  13   8   12.34    1.02
   0  13   8    9.46    0.94
   0  13   8   10.48    1.20
   0  13   9   15.03    1.15
   0  13   9   14.43    1.18
   0  13   9   14.68    1.39
   0  13  10   -0.39    0.34
   0  13  10    0.08    0.34
   0  13  11    3.70    0.46
   0  13  11    5.10    0.64
   0  13  12    4.50    0.59
   0  13  12    4.81    0.73
   0  13  13    9.73    0.99
   0  13  14    8.38    0.82
   0  14  -2    8.41    0.63
   0  14  -1   15.48    1.00
   0  14   0    2.93    0.39
   0  14   0    4.30    0.46
   0  14   1   15.52    1.04
   0  14   1   19.08    1.18
   0  14   2    4.07    0.52
   0  14   4   -0.07    0.33
   0  14   5    0.17    0.39
   0  14   5    0.85    0.36
   0  14   6   15.52    1.12
   0  14   6   14.41    1.18
   0  14   7    4.98    0.71
   0  14   7    6.41    0.63
   0  14   8   12.00    0.88
   0  14   8   10.09    0.99
   0  14   9    0.14    0.20
   0  14   9   -0.27    0.38
   0  14  10    2.40    0.48
  -1  14   7    0.23    0.21
  -1  14   6    7.30    0.64
  -1  14   5   16.24    1.08
  -1  14   4    2.31    0.39
  -1  14   2   -0.02    0.24
  -1  14   1   34.11    1.91
  -1  13  11   15.52    1.26
  -1  13  11   16.26    1.13
  -1  13  10    1.81    0.32
  -1  13  10    2.75    0.42
  -1  13  10    1.71    0.56
  -1  13   9   32.32    2.16
  -1  13   9   31.91    1.95
  -1  13   9   33.17    1.94
  -1  13   8    0.10    0.32
  -1  13   8   -0.05    0.52
  -1  13   7   16.01    1.17
  -1  13   7   14.25    1.29
  -1  13   6    5.81    0.70
  -1  13   6    4.93    0.79
  -1  13   5    0.28    0.47
  -1  13   5    0.08    0.37
  -1  13   4   46.25    2.57
  -1  13   4   37.86    2.55
  -1  13   2   46.74    2.60
  -1  13   1   10.33    0.92
  -1  13   1    9.97    0.82
  -1  13   0   11.22    0.91
  -1  13   0   12.52    0.99
  -1  13  -1   68.36    3.56
  -1  13  -1   62.52    3.55
  -1  13  -2    4.19    0.48
  -1  13  -2    3.88    0.51
  -1  13  -3    5.12    0.49
  -1  13  -3    7.86    0.65
  -1  13  -4    4.65    0.49
  -1  13  -5   23.86    1.42
  -1  12  15    9.59    0.91
  -1  12  15   11.20    0.84
  -1  12  14    6.49    0.80
  -1  12  14    7.26    0.71
  -1  12  13    0.93    0.55
  -1  12  12    4.24    0.63
  -1  12  11    0.88    0.33
  -1  12  11    1.38    0.46
  -1  12  10   77.35    4.33
  -1  12  10   86.17    4.70
  -1  12  10   79.55    4.44
  -1  12   9    1.90    0.55
  -1  12   9    1.19    0.75
  -1  12   9    2.46    0.52
  -1  12   8   23.70    1.64
  -1  12   8   22.13    1.88
  -1  12   8   22.16    1.64
  -1  12   7   29.11    1.98
  -1  12   7   28.08    2.22
  -1  12   7   32.45    2.06
  -1  12   6    2.87    0.64
  -1  12   6    3.26    0.88
  -1  12   6    3.29    0.56
  -1  12   5   42.51    2.67
  -1  12   5   41.06    2.85
  -1  12   4    2.72    0.85
  -1  12   4    2.71    0.62
  -1  12   3   13.80    1.13
  -1  12   3   13.58    1.45
  -1  12   2   11.75    1.27
  -1  12   2   12.50    1.03
  -1  12   1    1.58    0.47
  -1  12   1    0.98    0.49
  -1  12   0   53.74    3.23
  -1  12   0   55.81    3.17
  -1  12  -1    4.93    0.70
  -1  12  -1    3.83    0.60
  -1  12  -1    4.26    0.59
  -1  12  -2   84.46    4.45
  -1  12  -2   79.68    4.44
  -1  12  -2   79.43    4.38
  -1  12  -3    0.78    0.36
  -1  12  -3    0.37    0.35
  -1  12  -3    1.03    0.44
  -1  12  -4    5.08    0.65
  -1  12  -4    5.50    0.64
  -1  12  -5   14.17    1.07
  -1  12  -5   14.06    1.09
  -1  12  -6    7.12    0.70
  -1  12  -7   90.48    4.71
  -1  12  -8    0.51    0.27
  -1  12  -8    0.47    0.24
  -1  11  17    2.77    0.46
  -1  11  16    4.05    0.66
  -1  11  16    5.58    0.61
  -1  11  15   10.41    0.97
  -1  11  15    9.32    1.06
  -1  11  14    0.11    0.63
  -1  11  14    1.28    0.45
  -1  11  13   86.89    5.15
  -1  11  13   93.54    5.03
  -1  11  12    3.79    0.94
  -1  11  11   38.14    2.44
  -1  11  11   35.54    2.25
  -1  11  10   -0.05    0.39
  -1  11  10   -0.29    0.51
  -1  11   9   21.67    1.97
  -1  11   9   21.03    1.67
  -1  11   9   22.39    1.63
  -1  11   8   42.90    2.73
  -1  11   8   45.08    3.08
  -1  11   8   43.16    2.77
  -1  11   7    0.40    0.41
  -1  11   7    0.23    0.44
  -1  11   7   -0.12    0.52
  -1  11   7    0.59    0.75
  -1  11   6  123.91    6.90
  -1  11   6  117.72    6.51
  -1  11   6  124.06    6.58
  -1  11   5   10.44    1.08
  -1  11   5    7.76    0.91
  -1  11   5   12.17    1.39
  -1  11   4   10.44    1.34
  -1  11   4    8.78    1.02
  -1  11   4    8.22    0.89
  -1  11   4    9.20    0.88
  -1  11   3    8.76    0.88
  -1  11   3    9.67    1.02
  -1  11   3    8.50    1.22
  -1  11   3    6.90    0.81
  -1  11   2    8.32    1.20
  -1  11   2    7.12    0.82
  -1  11   1   44.33    3.10
  -1  11   1   45.56    2.80
  -1  11   1   47.07    2.89
  -1  11   0    2.19    0.55
  -1  11   0    0.78    0.48
  -1  11   0    0.59    0.68
  -1  11   0    1.43    0.54
  -1  11  -1  191.75    9.64
  -1  11  -1  195.37    9.70
  -1  11  -1  184.22    9.65
  -1  11  -1  158.12    9.72
  -1  11  -1  196.77    9.61
  -1  11  -2    0.58    0.49
  -1  11  -2    0.32    0.46
  -1  11  -2    0.30    0.42
  -1  11  -3   14.37    1.25
  -1  11  -3   13.07    1.20
  -1  11  -3   14.85    1.23
  -1  11  -4   22.39    1.59
  -1  11  -4   20.26    1.52
  -1  11  -4   21.28    1.62
  -1  11  -5   23.40    1.61
  -1  11  -5   20.34    1.55
  -1  11  -6   23.15    1.54
  -1  11  -6   17.71    1.62
  -1  11  -7    2.46    0.52
  -1  11  -8   17.61    1.25
  -1  11  -8   15.63    1.22
  -1  11  -9   27.59    1.73
  -1  11  -9   27.52    1.72
  -1  11 -10    0.33    0.30
  -1  11 -10    0.17    0.24
  -1  10  18    0.28    0.32
  -1  10  18    0.08    0.20
  -1  10  17   25.39    1.73
  -1  10  17   22.25    1.49
  -1  10  17   25.63    1.61
  -1  10  16   11.20    1.15
  -1  10  16   10.63    1.01
  -1  10  16   11.28    0.90
  -1  10  15    2.38    0.59
  -1  10  15    2.36    0.79
  -1  10  15    2.53    0.49
  -1  10  14   45.16    2.70
  -1  10  14   42.56    3.01
  -1  10  14   49.95    2.92
  -1  10  13    3.29    0.69
  -1  10  13    2.18    0.47
  -1  10  12   38.47    2.88
  -1  10  12   41.57    2.59
  -1  10  11    3.20    0.53
  -1  10  11    4.45    0.64
  -1  10  11    2.57    0.84
  -1  10  10   13.39    1.51
  -1  10  10   14.77    1.22
  -1  10   9   57.55    3.35
  -1  10   9   58.70    3.25
  -1  10   8    0.75    0.45
  -1  10   8    0.18    0.79
  -1  10   8    0.24    0.84
  -1  10   8    0.63    0.49
  -1  10   7  121.17    6.78
  -1  10   7  118.95    6.46
  -1  10   7  106.59    8.14
  -1  10   7  119.87    6.43
  -1  10   6    8.59    1.84
  -1  10   6   12.17    1.41
  -1  10   6   10.70    1.08
  -1  10   6    9.55    1.03
  -1  10   5   49.58    3.12
  -1  10   5   56.76    3.23
  -1  10   5   46.06    4.59
  -1  10   5   50.62    3.48
   1 -10  -5   51.77    4.99
  -1  10   4   25.98    1.88
  -1  10   4   24.68    1.78
  -1  10   4   27.33    2.25
  -1  10   4   24.85    1.73
   1 -10  -4   29.33    3.43
  -1  10   4   21.91    2.99
   1 -10  -3   -0.27    0.69
  -1  10   3    0.36    0.41
  -1  10   3    0.18    0.74
  -1  10   3    0.20    0.38
  -1  10   3   -0.10    0.34
  -1  10   2   27.30    2.25
  -1  10   2   27.05    1.86
  -1  10   2   26.62    1.81
  -1  10   1    0.96    0.41
  -1  10   1    0.76    0.97
  -1  10   1    0.90    0.46
  -1  10   1    2.09    0.85
  -1  10   0   87.40    4.81
  -1  10   0   91.46    4.89
  -1  10   0   87.47    4.89
  -1  10   0   80.02    6.52
  -1  10   0   82.85    5.17
  -1  10  -1   15.94    1.59
  -1  10  -1   13.78    1.48
  -1  10  -1   12.71    1.24
  -1  10  -1   13.40    1.24
  -1  10  -1   16.12    1.27
  -1  10  -1   12.83    2.18
  -1  10  -2   20.91    1.63
  -1  10  -2   21.66    1.61
  -1  10  -2   20.93    2.79
  -1  10  -2   21.38    1.95
  -1  10  -2   17.99    1.73
  -1  10  -2   22.92    1.64
  -1  10  -3   67.36    3.80
  -1  10  -3   53.52    5.05
  -1  10  -3   62.84    3.76
  -1  10  -3   67.53    3.80
  -1  10  -3   65.01    4.12
  -1  10  -4    7.25    0.83
  -1  10  -4    7.60    0.90
  -1  10  -4    5.55    0.79
  -1  10  -4    5.60    0.78
  -1  10  -4    6.43    0.85
  -1  10  -4    5.83    1.04
  -1  10  -5   13.13    1.17
  -1  10  -5   10.94    1.06
  -1  10  -5    9.85    1.31
  -1  10  -5   12.43    1.13
  -1  10  -5   12.25    1.14
  -1  10  -6    0.55    0.37
  -1  10  -6    0.37    0.45
  -1  10  -6   -0.06    0.45
  -1  10  -6   -0.24    0.65
  -1  10  -7   72.88    4.17
  -1  10  -7   75.98    4.19
  -1  10  -7   73.30    4.16
  -1  10  -7   70.28    4.37
  -1  10  -8    3.40    0.65
  -1  10  -8    3.17    0.62
  -1  10  -8    3.26    0.63
  -1  10  -8    4.00    0.76
  -1  10  -9    0.45    0.46
  -1  10  -9    0.92    0.47
  -1  10  -9    0.12    0.46
  -1  10  -9    0.09    0.41
  -1  10 -10   62.26    3.42
  -1  10 -10   57.00    3.50
  -1  10 -10   61.97    3.43
  -1  10 -11    5.71    0.61
  -1  10 -11    4.82    0.65
  -1  10 -11    6.30    0.67
  -1  10 -12   19.33    1.28
  -1  10 -13    0.09    0.19
  -1   9  19    1.26    0.33
  -1   9  19    0.84    0.34
  -1   9  18    5.66    0.66
  -1   9  18    6.66    0.80
  -1   9  18    4.09    0.73
  -1   9  18    5.54    0.62
  -1   9  17   24.02    1.62
  -1   9  17   25.50    1.62
  -1   9  16   11.68    1.08
  -1   9  16    9.09    1.22
  -1   9  16   10.93    1.01
  -1   9  15   71.55    4.06
  -1   9  15   70.99    4.15
  -1   9  14    0.43    0.44
  -1   9  14    0.25    0.49
  -1   9  13  123.95    6.54
  -1   9  13  114.44    6.38
  -1   9  12   20.62    1.62
  -1   9  12   16.91    1.43
  -1   9  11    5.67    0.75
  -1   9  11    5.42    1.08
  -1   9  11    5.93    0.89
   1  -9 -11    5.62    1.58
  -1   9  10   67.37    3.79
   1  -9 -10   65.05    5.76
  -1   9  10   65.54    3.78
  -1   9  10   62.71    4.16
   1  -9  -9    6.93    1.72
  -1   9   9    4.38    1.00
  -1   9   9    5.97    1.47
  -1   9   9    5.06    0.68
  -1   9   9    6.16    0.77
  -1   9   8  246.04   12.74
  -1   9   8  229.67   13.11
   1  -9  -8  251.31   15.13
  -1   9   8  261.35   12.89
  -1   9   8  273.23   12.99
  -1   9   8  239.52   14.69
  -1   9   7    1.29    0.55
  -1   9   7    0.70    0.97
   1  -9  -7    1.51    1.10
  -1   9   7   -0.08    0.73
  -1   9   7    1.08    0.58
  -1   9   6  117.50    6.39
   1  -9  -6  101.61    7.87
  -1   9   6  116.97    8.07
  -1   9   6  124.10    6.41
  -1   9   5    0.23    0.84
  -1   9   5    0.08    0.70
  -1   9   5    0.62    0.42
  -1   9   5    0.60    0.41
  -1   9   4    4.05    0.64
  -1   9   4    3.14    1.22
  -1   9   4    3.95    0.65
  -1   9   4    5.61    1.44
  -1   9   4    3.46    0.54
  -1   9   4    3.45    0.93
  -1   9   3  107.33    5.55
  -1   9   3   94.93    5.41
  -1   9   3   98.06    5.39
  -1   9   3   98.49    7.15
  -1   9   3  101.82    7.44
  -1   9   3  105.81    5.89
  -1   9   2    2.91    1.30
  -1   9   2    2.96    0.88
  -1   9   2    5.17    0.71
  -1   9   2    4.86    0.65
  -1   9   2    4.74    0.62
  -1   9   1   33.38    3.79
  -1   9   1   41.06    2.56
  -1   9   1   44.43    3.01
   1  -9  -1   46.74    4.14
  -1   9   1   41.10    2.53
  -1   9   0    8.18    0.90
  -1   9   0    8.23    0.89
  -1   9   0    8.58    1.63
  -1   9   0    8.25    1.26
  -1   9   0    9.04    1.84
  -1   9   0    7.71    0.91
  -1   9   0    9.66    1.29
  -1   9  -1    2.88    0.81
  -1   9  -1    3.25    1.23
  -1   9  -1    1.94    0.52
  -1   9  -1    1.44    0.50
  -1   9  -1    2.32    0.78
  -1   9  -1    2.23    0.55
  -1   9  -2   46.86    3.00
  -1   9  -2   50.69    3.04
  -1   9  -2   55.76    3.09
  -1   9  -2   46.01    4.36
  -1   9  -2   52.67    3.44
  -1   9  -2   46.06    3.24
  -1   9  -3    3.72    1.19
  -1   9  -3    2.82    0.58
  -1   9  -3    2.84    0.62
  -1   9  -3    3.13    0.85
  -1   9  -3    3.24    0.64
  -1   9  -3    3.21    0.66
  -1   9  -4  268.41   13.67
  -1   9  -4  258.98   13.32
  -1   9  -4  267.01   13.32
  -1   9  -4  251.88   13.26
  -1   9  -4  220.64   14.89
  -1   9  -4  271.98   13.34
  -1   9  -5    1.23    0.46
  -1   9  -5    2.68    0.64
  -1   9  -5    1.59    0.94
  -1   9  -5    2.32    0.65
  -1   9  -5    2.51    0.80
  -1   9  -6   32.88    2.20
  -1   9  -6   33.51    2.53
  -1   9  -6   34.35    2.30
  -1   9  -6   33.22    2.28
  -1   9  -7    3.22    0.71
  -1   9  -7    3.83    0.73
  -1   9  -7    4.51    0.74
  -1   9  -7    4.96    0.93
  -1   9  -8  101.66    5.97
  -1   9  -8  104.38    5.78
  -1   9  -8  105.32    5.79
  -1   9  -8  109.58    5.83
  -1   9  -9  123.27    6.67
  -1   9  -9  127.21    6.89
  -1   9  -9  123.36    6.70
  -1   9 -10    1.27    0.59
  -1   9 -10    1.31    0.57
  -1   9 -10    1.67    0.52
  -1   9 -11    8.36    0.86
  -1   9 -11    9.49    0.94
  -1   9 -11    8.62    0.94
  -1   9 -11    9.01    1.01
  -1   9 -12   18.18    1.36
  -1   9 -12   18.20    1.34
  -1   9 -12   17.04    1.38
  -1   9 -13    0.34    0.40
  -1   9 -13   -0.24    0.36
  -1   9 -13   -0.04    0.31
  -1   9 -14   57.15    3.07
  -1   9 -14   54.65    2.99
  -1   8  20    0.52    0.40
  -1   8  19    0.15    0.39
  -1   8  18    4.77    0.62
  -1   8  18    6.47    0.76
  -1   8  17    0.21    0.45
  -1   8  17    0.58    0.42
  -1   8  16   92.03    5.16
  -1   8  16   93.15    5.17
  -1   8  15    2.70    0.66
  -1   8  15    3.13    0.71
  -1   8  14   68.54    4.10
  -1   8  14   71.89    4.16
  -1   8  13    1.32    0.53
  -1   8  13    1.41    0.58
   1  -8 -13    0.31    0.92
  -1   8  12   18.40    1.57
   1  -8 -12   20.04    2.95
  -1   8  12   18.33    1.51
  -1   8  11   48.45    2.92
   1  -8 -11   42.81    4.43
  -1   8  11   43.95    2.92
   1  -8 -11   47.10    4.80
   1  -8 -10    7.14    1.67
   1  -8 -10    4.24    1.50
  -1   8  10    6.45    0.75
  -1   8  10    6.64    0.81
  -1   8  10    8.03    0.94
  -1   8   9   22.56    1.69
  -1   8   9   25.05    1.71
   1  -8  -9   26.33    3.22
  -1   8   9   24.16    2.75
   1  -8  -9   20.17    3.01
  -1   8   8   56.68    3.08
  -1   8   8   48.42    4.30
  -1   8   8   46.67    2.98
   1  -8  -8   48.14    4.62
  -1   8   7  515.03   25.90
   1  -8  -7  548.42   27.82
  -1   8   7  493.77   25.51
  -1   8   7  536.26   25.62
  -1   8   7  504.65   25.64
  -1   8   7  549.71   27.48
   1  -8  -6   37.78    3.73
  -1   8   6   37.32    2.34
  -1   8   6   39.45    3.69
  -1   8   6   40.88    2.48
  -1   8   6   39.69    2.48
   1  -8  -5    1.46    0.81
  -1   8   5    2.05    0.99
  -1   8   5    1.56    0.46
  -1   8   5    1.17    0.44
  -1   8   4  126.80    7.72
  -1   8   4  109.76    5.87
  -1   8   4  118.28    6.03
  -1   8   4  106.37    5.97
   1  -8  -4  110.33    7.35
  -1   8   3    3.55    0.55
  -1   8   3    2.44    0.97
  -1   8   3    2.56    0.54
  -1   8   3    3.73    0.52
  -1   8   2   22.59    1.60
  -1   8   2   21.86    1.88
  -1   8   2   21.67    1.51
  -1   8   2   21.16    1.50
  -1   8   2   25.09    3.04
  -1   8   1   37.00    2.11
  -1   8   1   33.48    2.41
  -1   8   1   33.40    2.10
  -1   8   1   35.82    2.50
  -1   8   1   28.70    2.01
  -1   8   1   34.78    3.57
  -1   8   0   39.95    2.92
  -1   8   0   46.29    2.69
  -1   8   0   39.09    3.82
   1  -8   0   44.93    3.83
  -1   8   0   44.26    2.62
  -1   8   0   42.07    2.62
  -1   8   0   45.15    2.98
  -1   8   0   45.43    4.12
  -1   8  -1  143.77    7.52
  -1   8  -1  142.01    7.51
  -1   8  -1  140.87    7.53
  -1   8  -1  145.70    7.85
  -1   8  -1  148.69    9.31
  -1   8  -1  146.58    7.87
  -1   8  -1  143.92    9.11
  -1   8  -2    2.39    0.71
  -1   8  -2    2.71    0.72
  -1   8  -2    1.46    0.50
  -1   8  -2    1.95    0.90
  -1   8  -2    1.89    0.48
  -1   8  -2    2.68    0.54
  -1   8  -2    2.90    1.16
  -1   8  -3  287.00   14.82
  -1   8  -3  297.00   14.84
  -1   8  -3  295.93   14.86
  -1   8  -3  285.62   16.48
  -1   8  -3  288.43   14.81
  -1   8  -3  304.39   15.17
  -1   8  -4    3.79    0.68
  -1   8  -4    2.97    1.13
  -1   8  -4    4.09    0.69
  -1   8  -4    3.01    0.58
  -1   8  -4    2.61    0.77
  -1   8  -4    2.81    0.59
  -1   8  -5   24.29    1.79
  -1   8  -5   26.84    1.82
  -1   8  -5   22.24    1.95
  -1   8  -5   25.35    2.87
  -1   8  -5   21.83    1.65
  -1   8  -6  192.66    9.76
  -1   8  -6  183.22    9.62
  -1   8  -6  202.07   10.04
  -1   8  -6  185.51    9.72
  -1   8  -6  163.45   11.09
  -1   8  -6  181.97    9.72
  -1   8  -7   76.41    4.18
  -1   8  -7   73.56    4.36
  -1   8  -7   66.89    4.07
  -1   8  -7   67.63    4.09
  -1   8  -8  190.61    9.94
  -1   8  -8  196.86    9.99
  -1   8  -8  182.38   10.12
  -1   8  -9   15.22    1.51
  -1   8  -9   15.51    1.41
  -1   8  -9   16.34    1.38
  -1   8 -10    2.34    0.72
  -1   8 -10    2.60    0.65
  -1   8 -10    2.13    0.58
  -1   8 -10    2.85    0.68
  -1   8 -11   58.67    3.42
  -1   8 -11   54.65    3.30
  -1   8 -11   57.46    3.39
  -1   8 -11   52.76    3.45
  -1   8 -12    4.14    0.61
  -1   8 -12    3.92    0.72
  -1   8 -12    3.66    0.66
  -1   8 -12    4.55    0.78
  -1   8 -13   81.51    4.40
  -1   8 -13   77.52    4.33
  -1   8 -13   74.75    4.40
  -1   8 -14    8.80    0.84
  -1   8 -14    8.21    0.86
  -1   8 -14    9.98    0.94
  -1   8 -15  102.84    5.94
  -1   8 -15  136.10    6.11
  -1   8 -16   13.93    1.01
  -1   7  21    0.41    0.26
  -1   7  21    0.28    0.22
  -1   7  20    9.90    0.88
  -1   7  19   23.83    1.68
  -1   7  17   38.96    2.45
  -1   7  17   38.01    2.70
  -1   7  16    0.17    0.45
  -1   7  16    0.80    0.72
  -1   7  15   61.80    3.56
  -1   7  15   62.96    3.63
   1  -7 -14    4.60    1.42
  -1   7  14    3.59    0.99
  -1   7  14    6.29    0.86
  -1   7  14    4.84    0.84
   1  -7 -14    6.60    1.72
  -1   7  13    2.94    0.68
  -1   7  13    3.22    0.67
  -1   7  13    1.13    0.77
   1  -7 -13    2.51    1.30
   1  -7 -13    4.19    1.32
  -1   7  12   20.80    1.54
  -1   7  12   12.58    1.56
  -1   7  12   16.58    1.44
   1  -7 -12   13.94    2.59
   1  -7 -12   15.98    2.66
  -1   7  11   15.31    1.53
  -1   7  11   16.08    1.35
  -1   7  11   14.79    1.34
   1  -7 -11   11.31    2.22
   1  -7 -11   17.34    2.67
  -1   7  10    0.18    0.41
   1  -7 -10    0.28    0.93
  -1   7  10    0.89    0.69
  -1   7  10    1.42    0.45
   1  -7 -10    1.36    1.09
  -1   7   9    1.67    0.42
  -1   7   9    1.08    0.80
  -1   7   9    1.71    0.50
   1  -7  -9    2.30    1.24
  -1   7   9    2.33    0.51
   1  -7  -8   69.29    5.65
  -1   7   8   68.55    4.01
  -1   7   8   71.57    3.97
  -1   7   8   75.32    5.31
  -1   7   8   73.40    4.08
  -1   7   7  147.16    7.77
  -1   7   7  154.26    9.22
   1  -7  -7  159.16    9.69
   1  -7  -6   14.16    2.04
  -1   7   6   11.73    1.01
  -1   7   6   11.08    1.04
  -1   7   6   14.37    1.91
   1  -7  -5  201.68   11.06
  -1   7   5  176.82    9.38
  -1   7   5  207.92   10.98
  -1   7   5  179.99    9.41
  -1   7   4    8.73    0.84
   1  -7  -4    8.17    1.43
  -1   7   4   10.36    1.64
  -1   7   3   19.25    1.41
  -1   7   3   22.18    2.41
   1  -7  -3   20.47    2.22
  -1   7   2   22.01    1.51
   1  -7  -2   19.91    2.14
  -1   7   1    6.98    1.52
  -1   7   0  105.23    6.88
  -1   7   0   95.00    5.19
  -1   7  -1   10.09    1.11
   1  -7   1   10.79    1.55
  -1   7  -1   11.91    1.77
  -1   7  -1   13.36    1.96
  -1   7  -1    9.34    0.91
  -1   7  -2  163.96    8.99
  -1   7  -2  180.18    9.29
  -1   7  -2  177.67    9.04
  -1   7  -2  188.39   10.73
   1  -7   2  184.08   10.11
  -1   7  -2  184.32   10.52
  -1   7  -3    2.38    1.05
  -1   7  -3    2.78    0.53
  -1   7  -3    3.25    1.03
  -1   7  -3    2.68    0.53
  -1   7  -3    2.16    0.46
  -1   7  -3    3.07    0.67
  -1   7  -4    6.88    0.81
  -1   7  -4    8.20    0.80
  -1   7  -4    7.40    0.96
  -1   7  -4    5.69    1.36
  -1   7  -4    7.67    1.09
  -1   7  -4    7.15    0.82
  -1   7  -5   54.28    4.34
  -1   7  -5   55.39    3.39
  -1   7  -5   56.59    3.21
  -1   7  -5   54.22    3.20
  -1   7  -5   51.04    3.12
  -1   7  -6   46.88    2.97
  -1   7  -6   45.94    2.79
  -1   7  -6   47.53    3.91
  -1   7  -6   42.91    2.76
  -1   7  -6   48.44    2.83
  -1   7  -6   41.20    2.64
  -1   7  -7  419.04   20.53
  -1   7  -7  377.70   21.76
  -1   7  -7  381.00   20.48
  -1   7  -7  420.40   20.55
  -1   7  -7  436.59   20.76
  -1   7  -8   25.76    1.95
  -1   7  -8   29.21    1.98
  -1   7  -8   27.59    2.10
  -1   7  -9  119.59    6.79
  -1   7  -9  126.90    6.79
  -1   7  -9  129.26    6.86
  -1   7  -9  128.75    6.99
  -1   7 -10    0.65    0.59
  -1   7 -10    0.15    0.50
  -1   7 -10   -0.13    0.51
  -1   7 -10    0.41    0.47
  -1   7 -11   27.29    1.90
  -1   7 -11   23.95    1.92
  -1   7 -11   27.77    1.98
  -1   7 -11   27.03    2.05
  -1   7 -12   61.99    3.65
  -1   7 -12   62.89    3.73
  -1   7 -12   56.69    3.48
  -1   7 -12   62.16    3.62
  -1   7 -13   44.22    2.73
  -1   7 -13   43.66    2.79
  -1   7 -13   41.59    2.78
  -1   7 -14   30.43    2.03
  -1   7 -14   30.68    2.14
  -1   7 -14   32.41    2.15
  -1   7 -15    0.54    0.51
  -1   7 -15    0.40    0.35
  -1   7 -15    0.24    0.41
  -1   7 -16    2.28    0.43
  -1   7 -16    1.91    0.51
  -1   7 -17   11.39    0.93
  -1   6  22    0.07    0.21
  -1   6  21    0.18    0.26
  -1   6  20   29.56    1.91
  -1   6  19    0.51    0.43
  -1   6  19   -0.19    0.62
  -1   6  18   93.83    4.98
  -1   6  18   79.15    5.14
  -1   6  17    0.06    0.48
  -1   6  17    0.05    0.39
  -1   6  17    0.54    0.80
  -1   6  16   27.56    2.00
  -1   6  16   21.91    2.20
  -1   6  16   25.34    1.82
   1  -6 -15   21.57    3.03
  -1   6  15   27.67    1.94
   1  -6 -15   27.40    3.55
   1  -6 -15   22.49    3.28
  -1   6  14   51.73    3.13
   1  -6 -14   53.59    5.13
   1  -6 -13  119.64    9.29
  -1   6  13  137.11    7.23
  -1   6  13  134.61    7.29
  -1   6  12    4.28    0.72
   1  -6 -12    4.52    1.57
  -1   6  12    3.84    0.73
   1  -6 -12    4.36    1.49
   1  -6 -11  381.52   21.79
  -1   6  11  376.72   19.35
  -1   6  11  393.08   19.40
   1  -6 -11  391.95   21.69
  -1   6  10    1.27    0.46
   1  -6 -10    0.28    0.86
  -1   6  10    1.85    0.69
  -1   6  10    2.23    0.55
   1  -6 -10    1.78    1.05
  -1   6   9    5.53    0.74
  -1   6   9    5.37    0.73
   1  -6  -9    6.12    1.52
  -1   6   9    7.65    1.32
  -1   6   8   44.78    2.87
   1  -6  -8   58.03    4.50
  -1   6   8   56.35    3.94
   1  -6  -7    0.40    0.65
  -1   6   7    0.89    0.61
   1  -6  -6  669.57   32.75
  -1   6   6  601.79   32.16
  -1   6   5    9.26    1.47
   1  -6  -5    9.42    1.52
   1  -6  -4    0.77    0.63
  -1   6   4    0.43    0.68
  -1   6   3   12.46    1.65
   1  -6  -3   13.34    1.67
  -1   6   2   14.34    1.81
   1  -6  -2   13.13    1.57
   1  -6  -1   91.36    5.79
  -1   6   1  106.64    6.33
   1  -6   0   12.32    1.36
  -1   6   0   19.98    2.17
  -1   6  -1  285.43   16.03
  -1   6  -1  314.79   16.40
  -1   6  -2   -0.17    0.64
   1  -6   2    0.71    0.48
  -1   6  -2   -0.30    0.69
   1  -6   3   14.20    1.53
  -1   6  -3   12.29    1.73
  -1   6  -3   15.65    1.98
  -1   6  -4  119.95    7.75
  -1   6  -4  125.73    7.63
  -1   6  -5    5.09    0.73
  -1   6  -5    3.77    1.02
  -1   6  -6  124.04    6.71
  -1   6  -6  124.59    7.69
  -1   6  -7    0.32    0.42
  -1   6  -7   -0.15    0.59
  -1   6  -7   -0.30    0.41
  -1   6  -8   74.46    4.06
  -1   6  -8   65.25    4.01
  -1   6  -8   72.47    4.17
  -1   6  -9   -0.49    0.52
  -1   6  -9   -0.12    0.51
  -1   6  -9    0.35    0.50
  -1   6 -10  125.65    6.73
  -1   6 -10  125.29    6.81
  -1   6 -10  126.30    6.92
  -1   6 -11  288.06   14.70
  -1   6 -11  280.18   14.46
  -1   6 -11  290.14   14.61
  -1   6 -12   20.90    1.62
  -1   6 -12   18.52    1.45
  -1   6 -12   18.93    1.66
  -1   6 -13   17.53    1.48
  -1   6 -13   16.30    1.46
  -1   6 -13   14.87    1.36
  -1   6 -14    2.59    0.68
  -1   6 -14    2.10    0.62
  -1   6 -14    2.11    0.57
  -1   6 -15    1.20    0.45
  -1   6 -15    2.34    0.58
  -1   6 -15    3.01    0.68
  -1   6 -16   34.74    2.23
  -1   6 -17    0.18    0.33
  -1   5  22    4.35    0.48
  -1   5  22    4.02    0.44
  -1   5  21   69.39    3.60
  -1   5  21   59.91    3.71
  -1   5  20   12.33    1.28
  -1   5  20   11.14    1.02
  -1   5  19   13.51    1.55
  -1   5  19   15.88    1.29
  -1   5  18    1.63    0.58
  -1   5  17    1.31    0.61
   1  -5 -16   20.87    3.21
  -1   5  16   27.96    2.02
   1  -5 -16   23.58    3.52
  -1   5  15   10.41    1.17
   1  -5 -15    8.44    2.12
   1  -5 -15    9.41    2.13
  -1   5  15   10.22    1.01
  -1   5  14  110.02    5.75
   1  -5 -14  100.02    8.00
   1  -5 -14  101.09    7.86
  -1   5  14   95.13    5.52
   1  -5 -13    4.46    1.73
  -1   5  13    5.21    0.82
  -1   5  13    4.79    0.73
   1  -5 -13    6.73    1.73
  -1   5  12   97.78    5.39
   1  -5 -12   99.94    7.64
   1  -5 -11   18.99    2.87
  -1   5  11   18.98    1.47
  -1   5  10    9.35    0.94
  -1   5  10    8.08    0.94
   1  -5 -10   12.46    2.03
   1  -5 -10    8.79    1.88
   1  -5  -9  164.33    9.82
  -1   5   9  144.62    8.66
   1  -5  -9  159.32   10.03
  -1   5   8   27.87    2.44
   1  -5  -8   27.99    2.97
  -1   5   7    3.64    0.92
  -1   5   6   14.92    1.68
  -1   5   5 1311.89   65.05
  -1   5   4  447.25   22.22
  -1   5   4  420.14   21.56
  -1   5   3   29.72    2.25
  -1   5   3   34.18    2.69
   1  -5  -2  573.08   29.48
  -1   5   2  593.90   29.66
   1  -5  -1   28.74    2.26
   1  -5   0  766.36   38.09
  -1   5  -1   23.23    2.27
   1  -5   1   20.09    1.60
  -1   5  -1   25.02    2.23
  -1   5  -2   11.70    1.63
  -1   5  -2   10.83    1.45
   1  -5   3  293.38   15.32
  -1   5  -3  301.44   15.90
  -1   5  -3  292.50   15.70
  -1   5  -4    0.89    0.78
  -1   5  -4    0.64    0.56
  -1   5  -5  175.90    9.94
  -1   5  -6   15.89    1.78
  -1   5  -7   74.11    4.13
  -1   5  -7   73.18    4.13
  -1   5  -7   76.31    4.88
  -1   5  -8    8.02    0.89
  -1   5  -8    9.15    0.95
  -1   5  -8    7.87    0.82
  -1   5  -9  136.29    7.16
  -1   5  -9  131.08    7.22
  -1   5  -9  141.73    7.35
  -1   5 -10   24.71    1.74
  -1   5 -10   23.70    1.76
  -1   5 -10   19.28    1.59
  -1   5 -10   20.02    1.54
  -1   5 -11    2.63    0.64
  -1   5 -11    2.46    0.65
  -1   5 -11    3.16    0.56
  -1   5 -11    3.30    0.73
  -1   5 -12  165.54    9.16
  -1   5 -12  179.00    9.38
  -1   5 -12  192.32    9.54
  -1   5 -12  188.15    9.49
  -1   5 -13    6.83    0.90
  -1   5 -13    7.86    0.98
  -1   5 -14    1.98    0.59
  -1   5 -14    0.96    0.47
  -1   5 -15   22.73    1.77
  -1   5 -15   22.61    1.62
  -1   5 -16   14.46    1.30
  -1   5 -17   12.45    1.14
  -1   5 -17   14.65    1.25
  -1   5 -18    1.79    0.42
  -1   5 -18    1.47    0.49
  -1   5 -19   19.68    1.35
  -1   4  22   15.41    1.27
  -1   4  22   18.64    1.14
  -1   4  22   14.76    1.04
  -1   4  21   -0.63    0.63
  -1   4  21   -0.20    0.32
  -1   4  20   50.40    2.97
   1  -4 -19    0.99    0.41
  -1   4  19    0.48    0.45
   1  -4 -18    6.97    0.79
  -1   4  18    7.79    0.92
   1  -4 -17   18.99    1.55
  -1   4  17   23.85    1.74
  -1   4  16   -0.27    0.53
   1  -4 -16    0.35    0.81
   1  -4 -16    0.30    0.83
   1  -4 -15  105.14    8.41
   1  -4 -15  104.40    8.04
  -1   4  15  107.91    5.95
   1  -4 -14    8.18    1.85
   1  -4 -14    8.27    1.55
  -1   4  14    6.99    0.93
   1  -4 -14    8.87    2.15
  -1   4  13  159.22    8.58
   1  -4 -13  172.48   10.85
  -1   4  13  161.40    8.46
   1  -4 -13  176.16   11.38
   1  -4 -12    7.17    1.87
  -1   4  12    8.71    0.93
   1  -4 -12   11.32    2.03
  -1   4  12    7.36    0.83
  -1   4  11    1.34    0.47
   1  -4 -11   -0.28    0.95
   1  -4 -11    0.47    0.81
  -1   4  11    0.66    0.38
   1  -4 -10  213.77   13.06
  -1   4   9   28.22    2.25
   1  -4  -9   31.65    3.36
  -1   4   8   14.55    1.53
  -1   4   7   12.04    1.36
  -1   4   6  261.23   13.76
  -1   4   5    0.48    0.59
  -1   4   5    0.63    0.32
  -1   4   4   12.83    1.13
  -1   4   4   14.97    1.53
  -1   4   3  204.09   10.88
  -1   4   3  228.09   11.43
  -1   4   2   58.93    3.50
  -1   4   2   56.59    3.79
   1  -4  -1  214.46   11.27
   1  -4   0   19.13    1.53
  -1   4  -1    5.38    0.98
  -1   4  -1    5.18    1.01
   1  -4   1    4.65    0.63
  -1   4  -2   17.53    1.75
  -1   4  -2   13.68    1.52
  -1   4  -3   34.56    2.81
  -1   4  -3   35.40    2.72
   1  -4   3   37.88    2.49
   1  -4   4   91.34    5.27
  -1   4  -4   96.63    5.71
  -1   4  -4  101.49    5.98
  -1   4  -5    1.66    0.69
  -1   4  -6   20.04    1.84
  -1   4  -7   86.36    5.21
  -1   4  -8    7.30    0.98
  -1   4  -9  189.74   10.17
  -1   4  -9  210.00   10.31
  -1   4  -9  197.74   10.21
  -1   4 -10   40.15    2.48
  -1   4 -10   36.06    2.34
  -1   4 -10   35.54    2.24
  -1   4 -11   27.34    1.86
  -1   4 -11   24.89    1.83
  -1   4 -11   24.95    1.92
  -1   4 -12    2.26    0.60
  -1   4 -12    2.66    0.70
  -1   4 -13   14.91    1.44
  -1   4 -13   15.11    1.33
  -1   4 -14  105.59    5.73
  -1   4 -14   97.16    5.49
  -1   4 -15   47.74    2.98
  -1   4 -15   56.04    3.31
  -1   4 -16    5.81    0.86
  -1   4 -17   -0.06    0.44
  -1   4 -17    0.06    0.55
  -1   4 -18    0.87    0.44
  -1   4 -18    1.58    0.57
  -1   4 -19    3.85    0.53
  -1   4 -19    3.58    0.62
  -1   4 -20    2.75    0.45
  -1   3  22    0.49    0.25
  -1   3  22    0.17    0.47
  -1   3  21   49.21    2.79
  -1   3  20    1.47    0.46
   1  -3 -19    6.82    0.82
  -1   3  19    9.49    0.95
   1  -3 -18    8.96    1.06
   1  -3 -18   10.59    1.04
  -1   3  18   10.31    1.07
  -1   3  17    5.69    0.83
   1  -3 -17    5.89    0.80
   1  -3 -17    3.54    1.53
   1  -3 -16  127.80    9.08
  -1   3  16  125.86    6.87
   1  -3 -16  128.07    9.72
  -1   3  15   11.16    1.16
   1  -3 -15   16.19    2.89
   1  -3 -15   10.75    2.18
   1  -3 -14  188.94   11.63
  -1   3  14  173.53    9.38
   1  -3 -14  201.81   12.56
   1  -3 -13   27.68    3.52
  -1   3  13   24.04    1.74
   1  -3 -13   25.79    1.89
   1  -3 -13   22.40    2.45
  -1   3  12   37.35    2.47
   1  -3 -12   39.81    3.92
   1  -3 -12   37.38    4.21
   1  -3 -12   41.75    2.62
   1  -3 -11  184.96   11.02
  -1   3  11  173.84    9.22
   1  -3 -11  197.08   11.69
   1  -3 -10   73.35    6.00
   1  -3 -10   81.92    5.77
   1  -3  -9    4.61    1.17
   1  -3  -9    5.13    1.42
  -1   3   8    6.24    0.83
   1  -3  -8    7.31    1.53
  -1   3   7   99.95    5.25
  -1   3   7   84.75    4.87
  -1   3   6  157.08    7.85
  -1   3   6  137.18    7.36
  -1   3   5    2.29    0.38
  -1   3   5    2.11    0.66
  -1   3   4  685.40   32.65
  -1   3   4  642.93   32.12
  -1   3   3  159.47    7.72
  -1   3   3  133.48    7.19
  -1   3   2 1315.87   64.44
  -1   3   2 1306.86   64.08
   1  -3  -1   17.47    1.44
   1  -3   0   63.45    3.63
   1  -3   1   49.87    2.87
  -1   3  -2    2.23    0.72
  -1   3  -2    2.79    0.65
  -1   3  -3  462.23   24.55
   1  -3   3  491.79   24.35
  -1   3  -3  517.12   24.81
   1  -3   4   14.54    1.16
  -1   3  -4   12.87    1.34
  -1   3  -4   16.44    1.64
  -1   3  -5  118.65    6.62
  -1   3  -6  219.37   11.50
  -1   3  -7  195.45   10.26
  -1   3  -8  632.52   32.55
   1  -3   8  710.52   33.19
   1  -3   9   12.85    1.48
  -1   3 -10   81.76    4.61
  -1   3 -11   10.05    1.10
  -1   3 -11   10.34    1.06
  -1   3 -12  124.84    6.61
  -1   3 -12  126.60    6.60
  -1   3 -12  111.22    6.36
  -1   3 -13  165.00    8.83
   1  -3  13  164.09    8.88
  -1   3 -13  172.92    8.98
  -1   3 -13  180.91    9.10
  -1   3 -14   45.12    2.81
   1  -3  14   39.41    2.64
  -1   3 -14   36.93    2.53
   1  -3  15  147.19    7.89
  -1   3 -15  149.19    8.02
  -1   3 -15  149.44    8.08
  -1   3 -16    0.65    0.63
  -1   3 -16    0.73    0.52
  -1   3 -17    3.82    0.75
  -1   3 -18   24.53    1.83
  -1   3 -19    1.70    0.47
  -1   3 -19    2.35    0.58
  -1   3 -20   30.43    1.77
  -1   3 -20   23.97    1.65
   1  -2 -22    7.58    0.82
  -1   2  22   11.55    0.81
  -1   2  21   -0.25    0.32
  -1   2  21   -0.06    0.29
   1  -2 -20   23.96    1.65
  -1   2  20   25.70    1.69
  -1   2  19   98.91    5.28
   1  -2 -19   93.65    5.27
  -1   2  18   49.89    2.96
   1  -2 -18   49.20    3.01
   1  -2 -18   43.28    2.94
  -1   2  17    8.96    0.99
   1  -2 -17    8.18    1.00
   1  -2 -17    7.41    0.96
   1  -2 -17    9.91    2.22
   1  -2 -16   10.01    2.44
  -1   2  16    9.00    1.04
   1  -2 -16   11.08    1.15
  -1   2  15    8.28    0.96
   1  -2 -15    9.45    2.26
   1  -2 -15    9.16    1.85
   1  -2 -14   71.22    4.20
   1  -2 -14   74.89    6.50
   1  -2 -14   68.50    5.59
  -1   2  14   67.79    4.01
   1  -2 -13   16.50    2.33
  -1   2  13   12.05    1.16
   1  -2 -13   15.49    1.38
   1  -2 -13   11.89    2.39
   1  -2 -12   69.70    5.87
  -1   2  12   61.30    3.63
   1  -2 -12   68.18    5.15
   1  -2 -12   60.26    4.33
   1  -2 -12   64.35    3.76
   1  -2 -11   45.03    4.44
   1  -2 -11   49.89    4.07
   1  -2 -10   70.71    5.09
   1  -2 -10   70.52    5.59
   1  -2  -9    1.05    0.87
   1  -2  -9    1.56    0.79
   1  -2  -8  327.06   15.78
   1  -2  -8  333.93   16.42
  -1   2   7   74.64    4.17
   1  -2  -7   73.83    5.25
  -1   2   6   70.23    4.00
  -1   2   5  565.40   28.07
  -1   2   4    0.63    0.25
  -1   2   4    1.14    0.44
  -1   2   3 4253.67  209.39
  -1   2   3 4496.19  209.79
  -1   2   2  232.61   11.52
  -1   2   2  234.76   11.86
   1  -2  -1  772.04   38.05
   1  -2   0   34.29    2.08
   1  -2   1   12.19    0.92
   1  -2   2  750.27   36.93
   1  -2   3   54.20    3.18
  -1   2  -3   60.72    3.58
  -1   2  -4  549.73   27.64
  -1   2  -6   16.03    1.30
  -1   2  -7  135.96    7.10
   1  -2   8  128.91    6.45
  -1   2  -8  102.33    5.52
   1  -2   9  307.06   16.11
   1  -2  10    0.74    0.55
  -1   2 -11    0.29    0.37
  -1   2 -11    0.17    0.40
   1  -2  11   -0.41    0.57
  -1   2 -12   25.84    1.95
   1  -2  12   25.28    1.80
  -1   2 -12   27.22    1.87
   1  -2  13    3.80    0.64
  -1   2 -13    3.54    0.67
  -1   2 -13    2.78    0.63
  -1   2 -14  269.72   13.92
   1  -2  14  267.07   13.75
  -1   2 -14  269.40   13.79
  -1   2 -15   -0.08    0.55
  -1   2 -15    0.76    0.58
   1  -2  15    0.46    0.49
   1  -2  16   38.71    2.58
  -1   2 -16   35.91    2.65
  -1   2 -16   40.13    2.66
  -1   2 -17   80.74    4.75
   1  -2  17   83.21    4.65
  -1   2 -17   77.47    4.68
  -1   2 -18   45.03    2.98
   1  -2  18   46.71    2.87
  -1   2 -19   58.09    3.35
   1  -2  19   53.16    3.19
  -1   2 -20   12.69    1.13
  -1   2 -20   15.23    1.16
  -1   1  22    0.82    0.25
   1  -1 -22    0.77    0.31
  -1   1  21   13.02    1.03
   1  -1 -21   14.47    1.22
   1  -1 -20   16.37    1.28
  -1   1  19    3.43    0.61
   1  -1 -19    3.42    0.66
   1  -1 -18  234.35   11.20
  -1   1  18  198.98   10.99
   1  -1 -17    1.81    0.58
   1  -1 -17    2.02    0.65
  -1   1  17    2.43    0.56
   1  -1 -16   70.55    4.17
   1  -1 -16   64.62    4.09
  -1   1  16   69.92    4.02
   1  -1 -15   73.53    4.32
  -1   1  15   68.76    4.11
   1  -1 -15   72.58    4.30
   1  -1 -14   14.74    1.42
   1  -1 -14   12.81    1.99
  -1   1  14   14.03    1.25
  -1   1  13   67.62    4.13
   1  -1 -13   76.36    5.49
   1  -1 -13   80.58    4.34
   1  -1 -12   17.63    1.44
  -1   1  12   14.48    1.25
   1  -1 -12   20.37    2.27
   1  -1 -11  365.88   17.44
   1  -1 -11  295.73   16.29
   1  -1 -10    1.34    0.77
   1  -1 -10    1.47    0.49
   1  -1  -9   75.06    4.98
   1  -1  -8  110.48    6.60
   1  -1  -7    1.03    0.63
   1  -1  -7    0.43    0.23
  -1   1   7    0.48    0.20
  -1   1   6  158.82    8.33
   1  -1  -6  181.81    9.06
  -1   1   5   31.57    1.94
   1  -1  -5   35.93    2.42
   1  -1  -3   39.48    2.52
   1  -1  -2  414.97   20.67
   1  -1  -1  106.32    5.57
   1  -1   0    0.80    0.28
   1  -1   1 1614.82   78.80
   1  -1   2   98.72    5.17
  -1   1  -5   84.40    4.50
  -1   1  -6    7.74    0.71
  -1   1  -7   73.36    3.85
   1  -1   7   73.01    3.89
   1  -1   8    0.09    0.47
  -1   1  -9    9.73    0.91
   1  -1   9   12.35    1.41
   1  -1  10   33.72    2.76
   1  -1  11  217.69   12.12
  -1   1 -12  146.78    7.55
   1  -1  12  127.78    8.41
  -1   1 -13   36.02    2.39
  -1   1 -13   33.36    2.27
  -1   1 -14   28.88    2.07
  -1   1 -14   29.03    2.14
  -1   1 -15  171.93    8.92
  -1   1 -15  162.75    8.97
   1  -1  16   16.74    1.49
  -1   1 -16   17.18    1.59
  -1   1 -16   16.53    1.51
  -1   1 -17  167.86    8.90
   1  -1  17  166.13    8.89
  -1   1 -18   10.26    1.21
  -1   1 -18   13.30    1.26
   1  -1  18   10.86    1.16
   1  -1  19    9.77    1.04
  -1   1 -19   11.59    1.18
  -1   1 -20    2.43    0.51
   1  -1  20    2.33    0.48
  -1   1 -20    1.91    0.55
  -1   1 -21    0.51    0.35
   1  -1  21    0.46    0.30
   1   0 -22    1.82    0.36
  -1   0  21   10.27    0.84
   1   0 -21   12.04    1.07
  -1   0  20    2.06    0.46
   1   0 -20    2.23    0.63
   1   0 -19   73.60    4.26
   1   0 -18   10.69    1.18
   1   0 -17    6.20    0.94
  -1   0  17    6.51    0.83
  -1   0  16   20.43    1.63
   1   0 -16   22.59    1.83
   1   0 -16   20.02    1.66
   1   0 -15   23.34    1.77
   1   0 -15   20.13    1.61
  -1   0  15   21.65    1.68
   1   0 -15   23.51    1.92
   1   0 -15   21.81    1.85
   1   0 -14  304.03   14.89
  -1   0  14  297.60   14.68
   1   0 -14  275.37   14.58
   1   0 -14  291.09   14.85
   1   0 -14  280.91   14.77
   1   0 -13    4.61    1.09
  -1   0  13    3.34    0.61
   1   0 -13    3.75    0.86
   1   0 -13    5.00    0.65
   1   0 -12  278.06   15.84
   1   0 -12  314.90   14.97
  -1   0  12  282.83   14.76
   1   0 -11    2.63    0.79
   1   0 -10    5.47    1.02
   1   0  -9  256.78   13.32
   1   0  -9  275.16   14.01
   1   0  -8   50.87    3.09
   1   0  -8   56.14    3.58
   1   0  -7   79.75    4.60
   1   0  -7   93.97    5.08
   1   0  -6    2.78    0.64
   1   0  -5   30.35    2.22
   1   0  -5   33.91    1.83
   1   0  -4   30.70    2.04
   1   0  -4   30.88    1.77
   1   0  -3   14.61    1.15
   1   0  -3   14.52    0.99
   1   0  -2  666.98   32.72
   1   0  -1  439.66   20.57
   1   0  -1  407.36   20.33
   1   0   0  266.79   13.26
  -1   0  -1    0.06    0.22
   1   0   1    0.19    0.19
  -1   0  -2  338.60   16.86
  -1   0  -3   61.51    3.51
  -1   0  -4  345.75   15.58
   1   0   4  290.97   15.08
   1   0   5   16.98    1.08
  -1   0  -5   18.55    1.58
   1   0   5   17.05    1.42
  -1   0  -6   20.53    1.84
   1   0   6   20.57    1.66
   1   0   6   19.88    1.16
   1   0   7   54.32    3.57
  -1   0  -7   60.02    3.95
  -1   0  -8  166.07    9.28
   1   0   8  153.74    8.72
   1   0   9  348.27   18.67
  -1   0  -9  379.37   19.37
  -1   0 -10   70.73    5.10
   1   0  10   63.82    4.48
  -1   0 -11   61.06    4.12
   1   0  11   64.75    4.63
  -1   0 -12   33.63    2.63
   1   0  12   32.63    3.08
  -1   0 -13   14.61    1.27
  -1   0 -13   16.93    2.57
   1   0  13   12.63    1.17
  -1   0 -14   20.96    1.63
   1   0  14   19.17    1.58
  -1   0 -14   23.18    1.74
  -1   0 -15   24.75    1.91
  -1   0 -15   27.12    2.02
   1   0  15   26.54    1.93
   1   0  16    6.06    0.88
  -1   0 -16    5.85    0.91
  -1   0 -16    7.33    0.93
   1   0  17    0.78    0.50
  -1   0 -17    1.71    0.59
  -1   0 -17    1.91    0.65
   1   0  18    0.85    0.47
   1   0  18    0.72    0.50
  -1   0 -18    1.24    0.57
  -1   0 -19    1.58    0.53
   1   0  19    0.71    0.51
  -1   0 -20    0.75    0.46
   1   0  20   -0.05    0.41
   1   0  21   18.98    1.24
  -1   0 -21   12.43    1.18
   1   0  22   36.21    1.69
  -1   0 -22   21.28    1.59
   1   1 -21    1.09    0.45
   1   1 -20   27.42    1.90
  -1  -1  20   24.03    1.61
  -1  -1  19    1.94    0.50
   1   1 -19    3.11    0.72
   1   1 -19    3.20    0.65
   1   1 -18   16.89    1.48
  -1  -1  18   14.56    1.32
   1   1 -17   10.14    1.05
   1   1 -17   13.80    1.37
   1   1 -16  284.09   14.71
   1   1 -15   42.87    5.03
   1   1 -15   46.29    3.04
   1   1 -15   51.17    3.08
   1   1 -15   51.98    3.29
   1   1 -14   60.62    3.55
   1   1 -14   52.25    3.28
   1   1 -14   52.16    3.30
   1   1 -13  112.60    6.40
   1   1 -13  127.14    6.57
   1   1 -13  116.51    6.34
   1   1 -12    0.32    0.47
   1   1 -12    0.44    0.41
   1   1 -12    0.28    0.38
   1   1 -11    9.90    1.07
   1   1 -10  118.22    6.86
   1   1  -9  105.25    6.10
   1   1  -8   74.35    4.47
   1   1  -7   10.53    1.09
   1   1  -6   43.98    2.35
   1   1  -6   39.85    2.68
   1   1  -5    2.94    0.80
   1   1  -5    2.50    0.49
   1   1  -5    2.45    0.34
   1   1  -4   75.96    3.81
   1   1  -4   68.50    3.99
   1   1  -4   71.20    3.78
   1   1  -3  714.37   33.51
   1   1  -3  639.05   33.63
   1   1  -3  709.77   33.92
   1   1  -3  674.78   33.46
   1   1  -2  118.97    6.16
   1   1  -2  109.31    6.03
   1   1  -2  119.43    5.94
   1   1  -1  503.29   25.59
   1   1  -1  516.66   25.62
   1   1  -1  544.73   25.62
   1   1   1   36.34    2.08
   1   1   1   37.80    2.10
  -1  -1  -2   30.52    1.75
   1   1   2   30.61    1.81
   1   1   2   33.60    1.86
   1   1   3  273.64   13.94
   1   1   3  287.14   13.83
  -1  -1  -3  273.95   13.89
   1   1   3  274.40   13.78
   1   1   4   51.88    3.04
   1   1   4   49.88    2.75
  -1  -1  -4   51.63    3.06
   1   1   5    1.05    0.52
  -1  -1  -5    1.39    0.57
   1   1   5    1.29    0.28
   1   1   6    0.81    0.53
  -1  -1  -6    1.65    0.67
   1   1   7  123.62    7.28
  -1  -1  -7  141.44    7.66
   1   1   8    6.00    0.99
  -1  -1  -8    5.02    1.14
   1   1   9  294.73   16.22
  -1  -1  -9  329.12   16.85
  -1  -1 -10  147.24    8.57
   1   1  10  125.46    7.85
  -1  -1 -11   10.81    1.83
   1   1  11    7.22    1.32
   1   1  12    0.69    0.64
  -1  -1 -12   -0.25    0.81
  -1  -1 -13    4.36    1.03
   1   1  13    6.09    0.75
  -1  -1 -13    4.61    0.71
  -1  -1 -14   39.90    2.55
  -1  -1 -14   36.35    4.20
   1   1  14   37.19    2.47
   1   1  15    3.82    0.70
  -1  -1 -15    5.49    1.78
  -1  -1 -15    3.63    0.70
  -1  -1 -16  302.50   16.57
   1   1  16  340.99   16.61
  -1  -1 -16  334.71   16.55
  -1  -1 -17    7.50    0.90
  -1  -1 -17    6.84    0.92
   1   1  17    5.38    0.86
  -1  -1 -18   33.88    2.35
  -1  -1 -18   34.80    2.31
   1   1  18   33.62    2.35
   1   1  19   17.13    1.47
  -1  -1 -19   17.26    1.38
   1   1  19   16.02    1.40
   1   1  20   57.93    3.35
   1   1  20   53.99    3.26
   1   1  21   24.54    1.58
  -1  -1 -21   18.76    1.55
   1   1  22   25.54    1.44
  -1  -1 -22   17.04    1.35
   1   1  23   32.42    2.13
   1   2 -21    9.60    0.85
   1   2 -20    0.58    0.45
   1   2 -19    7.35    0.95
   1   2 -18   11.95    1.25
   1   2 -18   11.68    1.34
   1   2 -17    8.52    1.17
   1   2 -17    7.67    0.93
  -1  -2  17    7.72    0.92
   1   2 -17    9.50    1.14
   1   2 -16  149.03    8.15
   1   2 -15    0.40    0.85
   1   2 -15   -0.33    0.56
   1   2 -14   11.92    1.15
   1   2 -14   13.24    1.62
   1   2 -14   12.17    1.31
   1   2 -14   12.92    1.24
   1   2 -13   24.32    1.82
   1   2 -13   27.62    2.17
   1   2 -13   28.02    2.03
   1   2 -13   23.84    1.84
   1   2 -13   27.57    3.59
   1   2 -12    1.24    0.45
   1   2 -12    0.85    0.97
   1   2 -12    1.03    0.45
   1   2 -12    1.43    0.90
   1   2 -12    0.33    0.43
   1   2 -11  144.20    7.64
   1   2 -11  150.60    7.78
   1   2 -11  159.79    9.80
   1   2 -11  140.80    7.74
   1   2 -10   25.62    2.99
   1   2  -9   71.65    5.27
   1   2  -8   38.87    3.38
   1   2  -7  240.40   13.21
   1   2  -6   95.41    5.88
   1   2  -5   63.44    4.00
   1   2  -5   58.92    3.34
   1   2  -4  742.75   36.87
   1   2  -4  738.94   36.40
   1   2  -3    7.54    0.76
   1   2  -3    9.45    1.01
   1   2  -2 1305.69   68.82
   1   2  -2 1485.31   68.92
   1   2  -2 1443.77   68.80
   1   2  -1   46.93    2.80
   1   2  -1   49.12    2.70
   1   2  -1   46.96    2.90
   1   2  -1   49.60    2.78
   1   2   0    2.57    0.60
   1   2   1  282.83   14.44
   1   2   1  304.46   14.62
   1   2   1  290.49   14.61
   1   2   2  285.50   13.86
   1   2   2  268.07   13.80
   1   2   2  285.85   13.92
   1   2   2  266.48   13.81
   1   2   3  215.37   11.04
   1   2   3  223.90   11.09
  -1  -2  -3  216.64   11.05
  -1  -2  -4    9.67    0.98
   1   2   4    8.77    0.85
   1   2   4    9.57    1.01
   1   2   4    9.72    0.86
  -1  -2  -5  549.31   26.38
   1   2   5  523.05   25.97
   1   2   5  506.45   26.28
  -1  -2  -6   91.64    5.32
   1   2   6   87.04    5.18
   1   2   6   87.36    4.76
  -1  -2  -7  343.88   16.50
   1   2   7  287.23   16.08
  -1  -2  -8  106.09    6.30
   1   2   8   92.75    5.89
   1   2   9  425.00   23.04
  -1  -2  -9  476.09   23.59
   1   2  10   66.80    4.78
  -1  -2 -10   72.66    5.26
  -1  -2 -11    3.05    1.20
  -1  -2 -12   58.06    5.06
  -1  -2 -13   40.07    4.13
   1   2  13   36.80    2.39
   1   2  14  217.47   11.19
  -1  -2 -14  219.83   12.67
  -1  -2 -14  208.35   11.16
  -1  -2 -15  288.23   15.10
  -1  -2 -15  320.71   18.21
  -1  -2 -15  273.60   16.52
   1   2  15  310.18   15.16
  -1  -2 -16   17.82    1.56
  -1  -2 -16   21.14    3.37
  -1  -2 -16   21.39    1.59
   1   2  16   20.02    1.64
  -1  -2 -17   16.52    1.41
  -1  -2 -17   12.93    1.30
  -1  -2 -17   17.34    3.00
   1   2  17   19.58    1.53
  -1  -2 -18   18.08    1.43
   1   2  18   17.93    1.54
   1   2  19   12.41    1.20
   1   2  20    4.58    0.74
   1   2  20    4.59    0.70
   1   2  21   32.57    2.05
   1   2  21   29.48    1.97
   1   2  22    9.40    0.77
  -1  -2 -22    7.54    0.84
   1   2  23    0.91    0.53
   1   2  23    0.74    0.25
   1   3 -20   11.62    1.01
   1   3 -19   23.96    1.77
   1   3 -18    2.60    0.72
   1   3 -18    2.77    0.57
   1   3 -17  313.89   15.41
   1   3 -17  287.59   15.10
   1   3 -16    6.69    1.03
   1   3 -16    6.10    0.88
   1   3 -16    5.84    0.97
   1   3 -15   64.18    4.14
   1   3 -15   69.80    4.24
   1   3 -14   18.49    1.70
   1   3 -14   21.07    2.01
   1   3 -13   14.24    1.43
   1   3 -13   16.04    1.32
   1   3 -13   16.66    1.81
   1   3 -12  260.85   13.38
   1   3 -12  258.39   13.30
   1   3 -12  266.23   13.52
   1   3 -12  262.03   13.50
   1   3 -11   46.95    2.78
   1   3 -11   46.69    2.99
   1   3 -11   44.02    2.81
   1   3 -11   45.92    2.91
   1   3 -10  258.68   12.69
   1   3 -10  241.03   12.56
   1   3 -10  261.17   14.58
   1   3 -10  241.06   12.66
   1   3  -9   14.31    2.10
   1   3  -8   44.62    3.77
   1   3  -7  106.24    6.75
   1   3  -6   19.79    2.00
   1   3  -6   17.41    1.42
   1   3  -5   25.13    2.12
   1   3  -5   20.20    1.60
   1   3  -4  117.19    6.69
   1   3  -3  114.17    6.47
   1   3  -2    5.11    0.89
   1   3  -1    4.08    0.85
   1   3  -1    5.40    0.55
   1   3   0  162.70    8.06
   1   3   0  144.76    7.53
   1   3   1  437.05   21.94
   1   3   2  134.32    7.17
   1   3   3   34.09    2.37
   1   3   3   38.24    2.40
   1   3   4   24.18    1.78
   1   3   4   20.70    1.65
  -1  -3  -5   54.65    3.58
   1   3   5   56.16    3.35
   1   3   6   16.64    1.34
   1   3   6   14.50    1.56
  -1  -3  -6   14.98    1.62
   1   3   7   41.71    3.26
  -1  -3  -7   50.17    3.46
   1   3   7   44.72    2.83
   1   3   8    6.14    1.20
  -1  -3  -8    6.89    1.29
   1   3   8    4.79    0.75
   1   3   9    1.41    0.43
  -1  -3  -9    1.18    0.82
  -1  -3 -10   42.09    3.73
  -1  -3 -11  343.49   19.09
   1   3  12    2.56    0.51
  -1  -3 -12    3.72    1.29
   1   3  13   28.36    1.97
  -1  -3 -13   31.71    3.56
  -1  -3 -14  265.77   14.49
   1   3  14  216.58   11.52
   1   3  15    7.68    0.94
  -1  -3 -15    4.24    1.35
  -1  -3 -15    9.82    2.19
  -1  -3 -16    3.36    1.24
  -1  -3 -16    1.04    0.95
   1   3  16    1.49    0.60
   1   3  17    4.75    0.82
  -1  -3 -17    4.16    0.68
   1   3  18   65.60    3.93
   1   3  19   30.41    2.14
   1   3  20    1.47    0.52
   1   3  21   -0.31    0.40
   1   3  21    0.42    0.41
   1   3  22    0.35    0.32
   1   3  22    0.07    0.32
   1   3  23   16.32    1.10
   1   3  23   17.18    1.45
   1   4 -20    9.27    0.79
   1   4 -19   37.31    2.31
   1   4 -18   88.17    4.74
   1   4 -18   80.00    4.54
   1   4 -17   19.56    1.66
   1   4 -17   19.94    1.56
   1   4 -16   29.19    2.12
   1   4 -16   31.46    2.30
   1   4 -15    1.64    0.71
   1   4 -15    2.45    0.72
   1   4 -15    0.86    0.57
   1   4 -14  127.36    7.25
   1   4 -14  138.54    7.48
   1   4 -14  135.28    7.45
   1   4 -14  140.67    7.53
   1   4 -13   57.60    3.61
   1   4 -13   53.27    3.52
   1   4 -13   56.23    3.66
   1   4 -12   41.14    2.88
   1   4 -12   36.27    2.64
   1   4 -12   42.32    2.77
   1   4 -12   38.57    2.46
   1   4 -12   37.96    2.40
   1   4 -11  111.02    6.32
   1   4 -11  133.28    6.70
   1   4 -11  124.65    6.59
   1   4 -11  114.98    6.30
   1   4 -10   22.56    1.59
   1   4 -10   23.47    1.79
   1   4 -10   23.65    1.68
   1   4 -10   23.53    1.80
   1   4 -10   20.99    1.56
   1   4  -9   44.29    2.74
   1   4  -9   40.76    2.57
   1   4  -7   22.62    1.83
   1   4  -6   75.14    4.51
   1   4  -5   40.13    2.76
   1   4  -4  250.67   13.07
   1   4  -3    3.33    0.67
   1   4  -3    1.78    0.86
   1   4  -2    0.94    0.70
   1   4  -2    2.03    0.64
   1   4  -1  224.86   11.24
   1   4  -1  222.68   11.43
   1   4  -1  201.17   10.78
   1   4   0  103.17    5.60
   1   4   0  110.79    6.17
   1   4   1   66.84    4.16
   1   4   2   30.12    2.24
   1   4   2   28.37    2.23
   1   4   3  611.25   31.70
   1   4   3  659.57   31.73
   1   4   4    7.30    1.05
   1   4   4   10.19    1.16
   1   4   5   58.25    3.68
   1   4   5   59.23    3.70
  -1  -4  -6  203.85   11.88
   1   4   6  235.27   11.73
   1   4   6  219.55   11.60
   1   4   7   61.61    3.95
  -1  -4  -7   61.90    4.39
   1   4   7   67.52    4.17
   1   4   8  609.56   31.33
  -1  -4  -8  660.52   32.20
  -1  -4  -9   22.91    2.36
   1   4   9   15.99    1.54
  -1  -4 -10  171.36   10.42
  -1  -4 -11   58.20    4.86
   1   4  12   81.81    4.60
  -1  -4 -12   86.32    6.48
  -1  -4 -13    2.48    1.31
   1   4  13    1.84    0.54
  -1  -4 -14   50.54    4.78
   1   4  14   42.09    2.75
   1   4  15   38.09    2.57
  -1  -4 -15   36.11    4.15
  -1  -4 -15   40.40    4.05
   1   4  16    2.86    0.70
  -1  -4 -16    3.16    1.23
  -1  -4 -16    1.98    1.32
   1   4  17  154.18    7.80
  -1  -4 -17  136.26   10.24
   1   4  18   24.89    1.93
   1   4  19   58.71    3.58
   1   4  20    4.31    0.75
   1   4  21    0.80    0.45
   1   4  21    0.18    0.39
   1   4  22   24.76    1.65
   1   4  22   25.32    1.62
   1   4  23    2.75    0.40
   1   4  23    1.74    0.31
   1   5 -19    4.53    0.55
   1   5 -18   13.57    1.11
   1   5 -18   11.07    1.00
   1   5 -17    2.95    0.64
   1   5 -17    2.69    0.64
   1   5 -16   13.05    1.27
   1   5 -16   12.00    1.19
   1   5 -15   67.76    4.09
   1   5 -15   65.79    3.94
   1   5 -14   72.84    4.46
   1   5 -14   75.05    4.35
   1   5 -13   14.83    1.39
   1   5 -13   14.72    1.58
   1   5 -13   15.59    1.26
   1   5 -13   14.84    1.50
   1   5 -12   30.91    2.22
   1   5 -12   38.22    2.56
   1   5 -12   37.91    2.42
   1   5 -12   32.61    2.23
   1   5 -12   35.99    2.64
   1   5 -11    9.82    1.18
   1   5 -11    9.22    0.97
   1   5 -11   10.63    1.50
   1   5 -11    9.83    1.00
   1   5 -10   28.70    1.91
   1   5 -10   30.77    2.02
   1   5 -10   34.20    2.24
   1   5 -10   29.67    2.24
   1   5 -10   30.65    2.21
   1   5 -10   26.74    1.96
   1   5  -9   53.32    3.24
   1   5  -9   52.85    3.27
   1   5  -9   50.51    3.08
   1   5  -9   54.90    3.16
   1   5  -9   56.34    3.32
   1   5  -9   49.65    3.03
   1   5  -8  169.23    8.90
   1   5  -8  188.14    9.10
   1   5  -8  170.17    8.97
   1   5  -8  177.52    9.03
   1   5  -8  160.99    8.86
   1   5  -7    4.57    0.84
   1   5  -6   33.61    2.63
   1   5  -5    1.84    0.66
   1   5  -4   22.96    2.10
   1   5  -3   34.72    2.72
   1   5  -2  158.60    8.91
   1   5  -2  159.53    9.17
   1   5  -1   86.01    4.94
   1   5  -1   72.27    4.35
   1   5  -1   73.83    4.94
   1   5   0    0.12    0.76
   1   5   0    0.81    0.43
   1   5   1   13.06    1.59
   1   5   2  264.25   14.03
   1   5   3  121.12    6.99
   1   5   3  120.14    6.97
   1   5   4  175.94    9.82
   1   5   4  183.19    9.84
   1   5   5   15.05    1.56
   1   5   5   14.31    1.56
   1   5   6  253.15   13.49
   1   5   6  254.75   13.42
  -1  -5  -7  286.12   15.19
   1   5   7  279.26   14.70
   1   5   7  275.20   14.75
  -1  -5  -8    2.88    0.94
   1   5   8    4.67    0.90
   1   5   8    3.58    0.84
  -1  -5  -9  123.59    7.46
   1   5   9  112.16    6.62
   1   5   9  107.53    6.68
   1   5  10   48.77    3.52
   1   5  10   43.03    3.23
  -1  -5 -10   50.67    4.16
   1   5  11   79.75    5.45
  -1  -5 -11   95.24    6.46
   1   5  11   83.36    4.64
   1   5  12    7.79    1.43
  -1  -5 -12    9.97    1.90
   1   5  12   10.73    1.04
   1   5  12    9.91    0.95
  -1  -5 -13   19.70    2.69
   1   5  13   16.13    1.34
   1   5  14   19.50    1.53
  -1  -5 -14   26.21    3.19
   1   5  15   22.35    1.75
  -1  -5 -15   20.34    2.89
  -1  -5 -15   16.00    2.78
  -1  -5 -16   80.02    7.17
   1   5  16   98.86    5.41
  -1  -5 -16   90.98    7.18
  -1  -5 -17    7.45    1.88
   1   5  17   12.80    1.31
  -1  -5 -17   12.26    2.39
   1   5  18    8.47    1.10
   1   5  19    7.26    0.99
   1   5  20    2.82    0.61
   1   5  21   11.72    1.43
   1   5  21   10.49    1.01
   1   5  22   11.03    0.96
   1   5  22   11.19    1.28
   1   5  23   17.17    1.37
   1   5  23   16.29    1.10
   1   6 -18   19.34    1.31
   1   6 -18   18.09    1.24
   1   6 -17   12.98    1.12
   1   6 -17   12.16    1.07
   1   6 -16   23.84    1.74
   1   6 -16   24.83    1.82
   1   6 -15   45.15    2.80
   1   6 -15   42.09    2.84
   1   6 -14   38.15    2.57
   1   6 -14   36.89    2.35
   1   6 -14   41.51    2.71
   1   6 -13    4.08    0.84
   1   6 -13    3.18    0.62
   1   6 -13    4.81    0.87
   1   6 -12    0.54    0.56
   1   6 -12    1.17    0.48
   1   6 -12    0.08    0.56
   1   6 -11   11.02    0.99
   1   6 -11   11.90    1.28
   1   6 -11    8.98    1.00
   1   6 -11   10.50    1.08
   1   6 -10   88.31    5.18
   1   6 -10   95.81    5.25
   1   6 -10   99.07    5.47
   1   6 -10   94.35    5.15
   1   6  -9    9.54    1.13
   1   6  -9   10.43    1.05
   1   6  -9    9.62    0.99
   1   6  -9   10.61    0.99
   1   6  -8   35.17    2.46
   1   6  -8   39.37    2.47
   1   6  -8   38.36    2.41
   1   6  -8   41.98    2.63
   1   6  -8   41.86    2.58
   1   6  -8   37.35    2.43
   1   6  -8   40.73    2.47
   1   6  -8   32.79    2.39
   1   6  -7   69.69    3.88
   1   6  -7   63.56    3.72
   1   6  -7   63.52    3.82
   1   6  -7   59.67    3.73
   1   6  -7   63.32    3.78
   1   6  -7   68.69    3.76
   1   6  -7   59.00    4.37
   1   6  -7   63.92    3.71
   1   6  -7   69.79    3.74
   1   6  -6    0.09    0.32
   1   6  -6    0.19    0.38
   1   6  -6    0.48    0.39
   1   6  -6    0.53    0.40
   1   6  -6    0.55    0.53
   1   6  -5   10.59    1.48
   1   6  -4   47.93    3.70
   1   6  -3   27.35    2.58
   1   6  -2    0.42    0.69
   1   6  -2    0.17    0.75
   1   6  -1   10.89    1.62
   1   6  -1    7.98    1.33
   1   6  -1    6.85    0.95
   1   6   0   17.03    2.02
   1   6   0   14.68    1.87
   1   6   0   14.82    1.45
   1   6   1   59.75    4.16
   1   6   1   52.18    3.54
   1   6   2   56.59    4.09
   1   6   3  237.29   12.34
   1   6   3  210.45   12.16
   1   6   4   48.79    3.82
   1   6   4   59.90    3.95
   1   6   5   17.74    1.85
   1   6   5   16.14    1.86
   1   6   6   42.72    3.15
   1   6   6   37.85    3.14
  -1  -6  -7   23.59    2.41
   1   6   7   20.80    2.11
   1   6   7   28.58    2.43
  -1  -6  -8  113.36    6.87
   1   6   8  101.60    6.49
   1   6   8   99.76    6.27
   1   6   9   60.75    4.22
  -1  -6  -9   66.43    4.87
   1   6   9   58.88    4.33
  -1  -6 -10   63.93    4.96
   1   6  10   62.02    4.33
   1   6  10   58.79    4.35
   1   6  10   64.10    3.60
  -1  -6 -11   38.62    3.67
   1   6  11   37.13    2.31
   1   6  11   34.12    2.28
  -1  -6 -12    0.74    0.80
   1   6  12    1.38    0.50
   1   6  12    0.50    0.43
  -1  -6 -13  102.34    7.67
   1   6  13  109.08    5.91
   1   6  13  107.74    5.92
  -1  -6 -14   13.15    2.25
   1   6  14   12.48    1.21
   1   6  14   14.51    1.31
  -1  -6 -15   58.43    5.35
  -1  -6 -15   53.54    5.23
   1   6  15   60.22    3.57
  -1  -6 -16   51.32    5.02
   1   6  16   50.61    3.15
  -1  -6 -17    4.27    1.26
   1   6  18    6.51    0.96
   1   6  18    5.14    1.24
   1   6  19    2.68    1.05
   1   6  19    3.15    0.69
   1   6  20   10.96    1.08
   1   6  20    8.79    1.32
   1   6  21   24.26    1.68
   1   6  21   25.25    1.72
   1   6  21   24.20    1.99
   1   6  22    7.73    0.74
   1   6  22    7.14    0.75
   1   6  22    7.42    0.95
   1   6  23    0.37    0.20
   1   6  23    0.16    0.19
   1   7 -17    4.52    0.57
   1   7 -17    4.86    0.57
   1   7 -16   47.20    2.84
   1   7 -16   50.22    2.91
   1   7 -15    7.62    0.87
   1   7 -15    6.53    0.85
   1   7 -14    0.29    0.53
   1   7 -14    0.40    0.48
   1   7 -13   -0.07    0.61
   1   7 -13    0.77    0.46
   1   7 -12   36.85    2.42
   1   7 -12   41.14    2.60
   1   7 -12   45.39    2.87
   1   7 -11    4.12    0.66
   1   7 -11    5.49    0.81
   1   7 -11    4.97    0.74
   1   7 -11    3.70    0.80
   1   7 -10   11.85    1.20
   1   7 -10   10.23    1.29
   1   7 -10   12.30    1.14
   1   7 -10   12.05    1.15
   1   7 -10   13.36    1.28
   1   7  -9  134.74    7.29
   1   7  -9  135.32    7.27
   1   7  -9  137.83    7.23
   1   7  -9  140.47    7.47
   1   7  -9  128.40    7.22
   1   7  -8   20.45    1.76
   1   7  -8   21.76    1.63
   1   7  -8   22.35    2.37
   1   7  -8   20.57    1.63
   1   7  -8   21.35    1.64
   1   7  -8   21.78    1.69
   1   7  -8   18.44    1.59
   1   7  -7   24.02    1.68
   1   7  -7   23.80    1.82
   1   7  -7   21.91    1.76
   1   7  -7   21.46    1.64
   1   7  -7   24.89    1.74
   1   7  -7   15.97    1.58
   1   7  -7   21.03    2.08
   1   7  -7   20.88    1.65
   1   7  -6   11.58    1.18
   1   7  -6   11.05    1.14
   1   7  -6   12.53    1.76
   1   7  -6   10.75    1.42
   1   7  -6   12.09    1.21
   1   7  -6   10.57    1.09
   1   7  -6    9.60    1.05
   1   7  -6   12.30    1.13
   1   7  -5   40.88    2.59
   1   7  -5   42.94    2.74
   1   7  -5   42.11    2.77
   1   7  -5   40.43    2.71
   1   7  -5   44.49    2.76
   1   7  -5   41.56    2.63
   1   7  -5   41.20    2.64
   1   7  -5   45.40    3.73
   1   7  -4   74.15    4.14
   1   7  -4   70.28    4.15
   1   7  -4   71.07    4.08
   1   7  -4   80.22    5.45
   1   7  -4   75.50    4.25
   1   7  -4   73.45    4.11
   1   7  -4   72.75    4.25
   1   7  -3   75.82    5.40
   1   7  -3   76.47    4.24
   1   7  -3   72.56    4.06
   1   7  -3   70.80    4.23
   1   7  -2    8.55    1.48
   1   7  -1   21.08    1.91
   1   7  -1   24.06    2.49
   1   7  -1   23.28    2.63
   1   7   0  164.17    9.38
   1   7   0  168.43    9.55
   1   7   0  142.57    8.50
   1   7   1  103.54    6.43
   1   7   1  122.60    7.29
   1   7   2  494.04   25.80
   1   7   3    7.75    1.43
   1   7   3    7.44    1.48
   1   7   4   37.64    3.32
   1   7   4   40.61    3.29
   1   7   5   17.22    2.13
   1   7   5   22.25    2.20
   1   7   6    6.09    1.17
   1   7   6    6.54    1.27
   1   7   7    8.93    1.49
  -1  -7  -7    8.84    1.47
   1   7   7   10.84    1.45
  -1  -7  -8   40.81    3.52
   1   7   8   39.09    3.44
   1   7   8   40.41    2.51
   1   7   8   42.69    3.32
   1   7   9  122.00    6.36
  -1  -7  -9  111.57    7.63
   1   7   9  115.10    6.69
   1   7   9  122.15    7.58
   1   7  10   21.35    2.30
   1   7  10   19.21    1.49
  -1  -7 -10   21.23    2.49
   1   7  10   20.97    1.88
   1   7  10   17.32    1.39
   1   7  11   21.52    1.99
   1   7  11   21.86    1.67
  -1  -7 -11   24.25    2.78
   1   7  11   21.88    1.60
   1   7  12  100.36    5.52
   1   7  12   96.76    5.96
   1   7  12  103.08    5.59
   1   7  13    6.82    0.86
   1   7  13    7.02    0.91
   1   7  13    7.82    1.34
   1   7  14  115.13    6.05
   1   7  14  102.12    6.47
   1   7  14  106.71    6.03
   1   7  15    1.42    0.61
   1   7  15    1.47    0.58
  -1  -7 -15    2.11    1.32
   1   7  15    1.32    0.89
  -1  -7 -16   14.05    2.58
   1   7  16   16.57    1.43
   1   7  16   15.55    1.45
   1   7  16   14.92    1.87
   1   7  17    1.27    0.97
   1   7  17    2.38    0.69
   1   7  17    1.35    0.51
   1   7  18    2.24    0.98
   1   7  19   44.74    3.18
   1   7  20   -0.29    0.75
   1   7  21   37.48    2.13
   1   7  21   32.93    2.01
   1   7  22    1.72    0.35
   1   7  22    1.60    0.50
   1   8 -16   12.07    0.94
   1   8 -16   11.73    0.93
   1   8 -15   12.30    1.06
   1   8 -14    0.39    0.47
   1   8 -13    0.41    0.39
   1   8 -13    0.71    0.49
   1   8 -12   34.56    2.37
   1   8 -12   32.99    2.27
   1   8 -12   31.22    2.16
   1   8 -11   57.91    3.52
   1   8 -11   61.13    3.73
   1   8 -11   54.96    3.41
   1   8 -11   63.24    3.62
   1   8 -10    7.31    0.90
   1   8 -10    5.67    0.84
   1   8 -10    8.80    1.13
   1   8 -10    8.89    1.05
   1   8 -10    5.52    0.88
   1   8  -9    1.89    0.74
   1   8  -9    2.30    0.66
   1   8  -9    3.45    0.80
   1   8  -9    3.27    0.65
   1   8  -9    2.61    0.62
   1   8  -8   45.22    2.92
   1   8  -8   48.26    2.95
   1   8  -8   50.09    3.02
   1   8  -8   41.58    2.89
   1   8  -8   41.81    3.27
   1   8  -8   48.30    3.17
   1   8  -7    4.74    0.87
   1   8  -7    6.41    0.95
   1   8  -7    6.99    0.91
   1   8  -7    8.01    0.99
   1   8  -7    7.40    1.05
   1   8  -7    6.60    2.38
   1   8  -7    5.83    0.87
   1   8  -6    0.73    0.49
   1   8  -6    0.07    0.62
   1   8  -6    1.02    0.56
   1   8  -6    0.23    0.57
   1   8  -6    0.20    0.72
   1   8  -6    1.02    0.61
   1   8  -6   -0.07    0.51
   1   8  -5   34.47    3.71
   1   8  -5   45.47    3.52
   1   8  -5   37.62    2.75
   1   8  -5   45.63    2.72
   1   8  -5   41.68    2.82
   1   8  -5   42.30    2.75
   1   8  -5   42.75    2.67
   1   8  -5   40.76    2.61
   1   8  -5   43.33    2.73
   1   8  -5   43.35    2.87
   1   8  -4   67.01    5.16
   1   8  -4   58.01    3.76
   1   8  -4   59.96    4.25
   1   8  -4   61.47    3.81
   1   8  -4   58.00    3.81
   1   8  -4   64.68    3.64
   1   8  -4   61.07    3.60
   1   8  -4   64.05    3.76
   1   8  -4   66.14    3.70
   1   8  -3   11.18    1.24
   1   8  -3   10.84    1.00
   1   8  -3    8.52    2.02
   1   8  -3    8.44    1.02
   1   8  -3   10.16    0.98
   1   8  -3   11.60    1.08
   1   8  -3    8.94    1.70
   1   8  -3    9.79    0.98
   1   8  -3    8.41    0.93
   1   8  -3   10.88    1.17
   1   8  -2   12.84    1.26
   1   8  -2   11.82    1.08
   1   8  -2   12.75    1.13
   1   8  -2    8.74    2.07
   1   8  -2   15.73    1.42
   1   8  -2   14.11    1.30
   1   8  -2   13.21    2.04
   1   8  -2   11.55    1.06
   1   8  -2   12.34    1.14
   1   8  -1   75.17    4.22
   1   8  -1   78.88    4.44
   1   8  -1   73.53    4.69
   1   8  -1   81.22    4.51
   1   8  -1   79.69    4.26
   1   8  -1   77.22    4.58
   1   8  -1   73.73    4.27
   1   8  -1   72.97    4.48
   1   8  -1   74.59    4.26
   1   8  -1   77.30    5.71
   1   8   0   17.35    1.34
   1   8   0   15.75    1.25
   1   8   0   16.32    2.15
   1   8   0   16.26    1.29
   1   8   0   14.24    1.56
   1   8   0   18.53    1.51
   1   8   0   16.29    2.22
   1   8   0   19.50    1.64
   1   8   0   15.54    1.24
   1   8   1   48.27    2.80
   1   8   1   47.74    3.08
   1   8   1   52.95    3.26
   1   8   1   54.31    4.30
   1   8   1   44.34    3.14
   1   8   1   45.90    2.84
   1   8   2    3.99    1.29
   1   8   2    6.84    0.99
   1   8   2    5.70    1.47
   1   8   3   27.17    2.64
   1   8   3   31.49    2.27
   1   8   3   33.47    3.11
   1   8   3   28.80    1.93
   1   8   4   31.06    2.06
   1   8   4   35.20    3.14
   1   8   4   36.83    3.33
   1   8   5    0.79    0.40
   1   8   5    1.16    0.66
   1   8   5    0.82    0.41
   1   8   5    2.45    0.77
   1   8   5    0.38    0.68
   1   8   6  141.05    7.71
   1   8   6  133.89    7.25
   1   8   6  147.65    8.86
   1   8   6  138.35    7.30
   1   8   6  143.16    8.48
   1   8   7    0.19    0.82
   1   8   7    0.85    0.37
   1   8   7    0.16    0.36
   1   8   7    0.78    0.60
   1   8   8   55.09    3.24
   1   8   8   61.48    4.66
   1   8   8   53.96    3.62
   1   8   9    4.98    0.73
   1   8   9    4.10    0.64
   1   8   9    5.36    0.96
   1   8   9    4.67    0.60
   1   8   9    3.19    1.13
   1   8  10   -0.19    0.39
   1   8  10    0.49    0.36
   1   8  10    0.40    0.65
   1   8  10    0.24    0.40
   1   8  10   -0.26    0.69
   1   8  11  164.32    8.47
   1   8  11  157.97    8.34
   1   8  11  155.70    8.79
   1   8  12    4.27    0.73
   1   8  12    2.60    0.94
   1   8  12    3.06    0.60
   1   8  13   38.25    2.54
   1   8  13   38.62    2.46
   1   8  13   32.38    2.82
   1   8  14   14.28    1.71
   1   8  14   14.01    1.32
  -1  -8 -14   18.05    2.74
   1   8  14   16.10    1.44
   1   8  15   32.81    2.31
   1   8  15   32.66    2.23
   1   8  15   29.38    2.60
   1   8  16    0.93    0.52
   1   8  16    0.79    0.79
   1   8  16   -0.06    0.54
   1   8  17    3.30    0.96
   1   8  17    2.06    0.58
   1   8  17    1.86    0.59
   1   8  18   57.02    3.53
   1   8  18   59.34    3.94
   1   8  18   53.64    3.55
   1   8  19    7.73    1.14
   1   8  19   10.52    1.02
   1   8  20   27.62    1.74
   1   8  20   21.59    1.81
   1   8  20   23.81    1.57
   1   8  21    0.68    0.26
   1   8  21    0.89    0.44
   1   9 -15    0.05    0.26
   1   9 -14    9.00    0.88
   1   9 -14    9.41    0.86
   1   9 -13   16.35    1.18
   1   9 -13   16.61    1.34
   1   9 -13   15.09    1.26
   1   9 -12   14.61    1.34
   1   9 -12   15.09    1.27
   1   9 -12   13.56    1.16
   1   9 -11    5.85    0.84
   1   9 -11    5.14    0.88
   1   9 -11    6.80    0.82
   1   9 -11    5.12    0.69
   1   9 -10    1.83    0.68
   1   9 -10    1.02    0.46
   1   9 -10    0.99    0.64
   1   9 -10    1.25    0.56
   1   9  -9  125.93    6.73
   1   9  -9  120.66    6.47
   1   9  -9  122.37    6.49
   1   9  -9  123.43    6.53
   1   9  -9  104.02    6.52
   1   9  -8   12.03    1.65
   1   9  -8   14.55    1.51
   1   9  -8   13.99    1.29
   1   9  -8   13.07    1.33
   1   9  -7   53.10    3.49
   1   9  -7   63.23    3.70
   1   9  -7   60.38    3.41
   1   9  -7   58.90    3.44
   1   9  -6   67.96    4.05
   1   9  -6   68.40    4.15
   1   9  -6   74.42    3.98
   1   9  -6   53.76    3.86
   1   9  -6   70.53    3.89
   1   9  -6   54.65    3.84
   1   9  -6   68.06    3.89
   1   9  -5   35.18    2.81
   1   9  -5   49.13    3.13
   1   9  -5   39.32    4.09
   1   9  -5   46.39    3.08
   1   9  -5   48.74    2.91
   1   9  -5   39.37    2.90
   1   9  -5   43.43    2.75
   1   9  -5   47.59    2.83
   1   9  -4    3.57    0.66
   1   9  -4    3.59    1.81
   1   9  -4    3.20    0.87
   1   9  -4    2.93    0.85
   1   9  -4    3.59    0.75
   1   9  -4    5.06    0.87
   1   9  -4    4.29    1.35
   1   9  -4    1.21    1.10
   1   9  -4    3.18    0.66
   1   9  -3    0.47    0.47
   1   9  -3    1.43    0.59
   1   9  -3    1.93    0.54
   1   9  -3    1.48    0.73
   1   9  -3    1.08    0.69
   1   9  -3    1.64    0.57
   1   9  -3    1.09    1.39
   1   9  -3    1.75    1.77
   1   9  -3    1.21    0.87
   1   9  -3    1.75    0.68
   1   9  -2  130.86    7.59
   1   9  -2  141.93    7.62
   1   9  -2  126.65    7.50
   1   9  -2  137.57    9.06
   1   9  -2  139.00    7.30
   1   9  -2  124.88    7.44
   1   9  -2  137.34    7.21
   1   9  -2  138.44    7.24
   1   9  -2  140.37    7.27
   1   9  -1    1.42    1.79
   1   9  -1    0.46    0.44
   1   9  -1   -0.05    0.44
   1   9  -1    0.16    0.52
   1   9  -1    0.57    0.41
   1   9  -1    0.05    0.38
   1   9  -1   -0.17    0.74
   1   9  -1    0.48    0.74
   1   9  -1    0.52    0.50
   1   9  -1    0.22    1.47
   1   9   0   37.64    2.32
   1   9   0   36.56    2.63
   1   9   0   38.36    2.77
   1   9   0   34.04    3.15
   1   9   0   35.50    2.30
   1   9   0   37.93    2.40
   1   9   0   32.84    2.58
   1   9   0   34.37    2.61
   1   9   0   36.94    2.38
   1   9   0   38.01    3.78
   1   9   1   23.61    1.65
   1   9   1   23.37    1.93
   1   9   1   22.96    1.94
   1   9   1   22.18    1.68
   1   9   1   22.88    2.89
   1   9   1   24.26    2.05
   1   9   1   22.38    1.61
   1   9   1   22.39    1.97
   1   9   2    1.88    0.51
   1   9   2    2.92    0.85
   1   9   2    2.23    0.70
   1   9   2    2.23    0.83
   1   9   2    2.32    0.53
   1   9   2    4.32    0.85
   1   9   2    3.24    0.55
   1   9   3   46.43    2.82
   1   9   3   46.14    2.89
   1   9   3   49.17    3.30
   1   9   3   48.92    2.85
   1   9   3   44.64    2.89
   1   9   3   46.77    3.18
   1   9   3   51.63    3.27
   1   9   3   55.31    3.41
   1   9   3   48.23    4.15
   1   9   4    6.46    1.07
   1   9   4    7.83    1.62
   1   9   4    7.18    0.83
   1   9   4    6.27    0.80
   1   9   4    6.00    1.13
   1   9   4    6.28    1.43
   1   9   4    6.98    0.76
   1   9   4    8.18    1.19
   1   9   5  109.95    6.53
   1   9   5  120.28    6.23
   1   9   5  113.38    7.82
   1   9   5  111.18    6.18
   1   9   5  118.68    6.67
   1   9   6    3.55    0.89
   1   9   6    5.00    1.04
   1   9   6    2.91    0.58
   1   9   6    4.00    0.90
   1   9   6    4.69    1.32
   1   9   6    3.72    0.65
   1   9   7  117.88    6.69
   1   9   7  111.89    8.00
   1   9   7  114.43    6.75
   1   9   7  125.89    6.89
   1   9   7  121.85    6.45
   1   9   7  116.82    6.37
   1   9   8    3.79    1.01
   1   9   8    3.19    0.64
   1   9   8    3.82    0.72
   1   9   8    3.86    0.89
   1   9   8    4.08    1.31
   1   9   9    5.26    0.74
   1   9   9    4.33    1.22
   1   9   9    4.06    1.06
   1   9   9    3.07    0.92
   1   9  10   11.72    1.01
   1   9  10   11.23    1.40
   1   9  10   10.27    1.92
   1   9  10   10.77    1.17
   1   9  10   12.17    1.13
   1   9  11   19.76    1.91
   1   9  11   19.82    1.55
   1   9  11   22.24    1.73
   1   9  11   21.03    1.54
   1   9  12    1.21    0.72
  -1  -9 -12    0.30    0.87
   1   9  12    1.05    0.43
   1   9  12    0.07    0.50
  -1  -9 -13   -0.30    0.83
   1   9  13    0.38    0.67
   1   9  13   -0.05    0.45
   1   9  13    0.28    0.49
   1   9  14    7.89    1.26
   1   9  14    8.19    1.03
   1   9  14    9.08    0.96
  -1  -9 -14    6.10    1.71
   1   9  15   11.67    1.22
   1   9  15   11.80    1.11
   1   9  15    9.05    1.37
   1   9  16    1.17    0.79
   1   9  16    3.26    0.70
   1   9  16    2.66    0.60
   1   9  16    2.55    0.77
   1   9  17   15.94    1.54
   1   9  17   19.59    1.56
   1   9  17   18.95    1.75
   1   9  17   21.36    1.53
   1   9  18   12.01    1.12
   1   9  18   15.01    1.19
   1   9  18   10.67    1.27
   1   9  18   11.67    1.16
   1   9  19    9.20    1.09
   1   9  19   11.95    1.33
   1   9  19   12.81    1.03
   1   9  20    1.63    0.68
   1   9  20    2.00    0.46
   1   9  21    0.75    0.40
   1   9  21    0.23    0.24
   1  10 -13   16.29    1.10
   1  10 -13   18.91    1.27
   1  10 -12    0.50    0.39
   1  10 -12    0.67    0.41
   1  10 -12    0.86    0.35
   1  10 -11    7.00    0.75
   1  10 -11    6.09    0.78
   1  10 -11    6.55    0.86
   1  10 -10    7.01    0.90
   1  10 -10    7.96    0.87
   1  10 -10    8.14    0.84
   1  10 -10    8.11    1.00
   1  10  -9   18.58    1.46
   1  10  -9   20.30    1.50
   1  10  -9   17.55    1.51
   1  10  -9   18.57    1.67
   1  10  -8  157.85    8.62
   1  10  -8  157.75    8.42
   1  10  -8  161.20    8.39
   1  10  -7   30.53    2.44
   1  10  -7   31.10    2.18
   1  10  -7   32.16    2.18
   1  10  -7   31.82    2.24
   1  10  -6   77.79    4.40
   1  10  -6   73.68    4.08
   1  10  -6   73.42    4.06
   1  10  -6   78.03    4.17
   1  10  -5   35.64    2.60
   1  10  -5   29.85    2.16
   1  10  -5   33.51    2.25
   1  10  -5   36.70    2.35
   1  10  -5   27.59    2.31
   1  10  -4    1.32    0.52
   1  10  -4    0.68    0.54
   1  10  -4    1.38    0.66
   1  10  -4    0.72    0.54
   1  10  -4    0.72    0.58
   1  10  -4    1.04    0.71
   1  10  -4    0.51    0.74
   1  10  -4    0.63    0.72
   1  10  -3  142.22    7.51
   1  10  -3  111.67    7.16
   1  10  -3  105.85    8.75
   1  10  -3  130.77    7.13
   1  10  -3  141.81    7.23
   1  10  -3  140.18    7.14
   1  10  -3  136.77    7.14
   1  10  -3  136.73    7.46
   1  10  -2    3.58    0.76
   1  10  -2    2.97    0.91
   1  10  -2    3.18    0.85
   1  10  -2    4.43    1.39
   1  10  -2    3.76    0.70
   1  10  -2    4.35    0.74
   1  10  -2    3.88    0.86
   1  10  -2    4.21    0.75
   1  10  -1   45.12    3.13
   1  10  -1   45.06    2.74
   1  10  -1   43.93    2.75
   1  10  -1   45.77    3.18
   1  10  -1   42.30    2.78
   1  10   0    0.82    0.47
   1  10   0    0.09    0.76
   1  10   0    0.63    0.51
   1  10   0    1.26    0.67
   1  10   0    1.04    1.00
   1  10   0    0.50    0.45
   1  10   1    7.08    0.84
   1  10   1    8.19    1.28
   1  10   1    8.75    0.98
   1  10   1    6.97    1.76
   1  10   1    6.62    1.12
   1  10   1    5.39    1.01
   1  10   1    7.15    1.14
   1  10   1    6.58    0.83
   1  10   1    7.16    0.88
   1  10   2    0.16    0.67
   1  10   2    1.98    0.90
   1  10   2    0.61    0.71
   1  10   2    0.57    0.44
   1  10   2    1.17    0.47
   1  10   2    0.09    0.71
   1  10   2    0.79    0.41
   1  10   3   29.40    2.02
   1  10   3   30.72    2.03
   1  10   3   27.15    2.43
   1  10   3   28.97    2.07
   1  10   3   34.14    2.19
   1  10   3   27.96    2.33
   1  10   3   33.18    2.19
   1  10   3   33.17    2.56
   1  10   4   93.71    5.29
   1  10   4  102.05    5.37
   1  10   4  100.90    5.74
   1  10   4   89.50    5.17
   1  10   4   93.06    5.69
   1  10   4  101.11    7.22
   1  10   4   88.77    5.57
   1  10   4  102.76    5.39
   1  10   5    4.38    1.07
   1  10   5    4.62    0.99
   1  10   5    4.71    0.73
   1  10   5    4.05    0.62
   1  10   5    5.25    0.77
   1  10   5    3.78    1.35
   1  10   5    4.37    0.74
   1  10   6   15.73    1.79
   1  10   6   17.82    1.47
   1  10   6   13.58    1.62
   1  10   6   18.10    2.56
   1  10   6   17.22    1.44
   1  10   7    2.56    0.96
   1  10   7    3.26    1.38
   1  10   7    3.41    1.06
   1  10   7    3.51    0.89
  -1 -10  -7    1.87    1.01
   1  10   7    2.97    0.69
   1  10   7    2.78    0.66
   1  10   8   20.74    1.60
   1  10   8   18.68    1.50
   1  10   8   17.17    1.79
  -1 -10  -8   17.37    2.53
   1  10   8   14.92    1.70
   1  10   8   20.27    2.74
   1  10   8   14.83    1.79
   1  10   9   16.50    1.45
   1  10   9   14.56    1.60
   1  10   9   15.70    1.37
   1  10   9   16.32    1.77
   1  10   9   11.48    2.19
   1  10   9   16.09    1.68
  -1 -10  -9   14.34    2.37
   1  10  10   41.43    4.32
   1  10  10   50.40    3.27
   1  10  10   50.94    2.97
   1  10  10   40.28    3.15
  -1 -10 -10   40.59    4.42
   1  10  10   46.94    3.40
   1  10  11   21.13    2.13
   1  10  11   24.38    1.74
   1  10  11   23.68    1.60
   1  10  11   20.31    1.97
   1  10  11   23.77    2.09
  -1 -10 -11   24.50    3.22
   1  10  12    8.86    1.11
   1  10  12    8.10    1.30
   1  10  12    8.15    1.24
  -1 -10 -12    7.49    1.85
   1  10  12    6.99    1.16
   1  10  12    7.31    0.81
   1  10  13    0.37    0.39
   1  10  13   -0.14    0.51
   1  10  13    0.74    0.72
   1  10  13    1.34    0.92
   1  10  13    0.25    0.67
   1  10  14   60.16    3.52
   1  10  14   57.97    3.61
   1  10  14   53.84    3.20
   1  10  14   49.65    3.56
   1  10  14   54.82    3.77
   1  10  15    3.12    0.86
   1  10  15    3.99    0.62
   1  10  15    2.40    0.82
   1  10  15    4.67    0.84
   1  10  15    5.26    1.10
   1  10  16   60.34    3.34
   1  10  16   53.19    3.52
   1  10  16   53.09    3.07
   1  10  16   50.00    3.29
   1  10  16   46.68    3.27
   1  10  17    0.48    0.34
   1  10  17    0.78    0.73
   1  10  17   -0.21    0.50
   1  10  17   -0.05    0.44
   1  10  18    2.71    0.61
   1  10  18    4.20    0.85
   1  10  18    3.72    0.53
   1  10  19    0.19    0.26
   1  10  19    0.48    0.50
   1  10  20    0.27    0.40
   1  11 -11    6.93    0.74
   1  11 -11    7.54    0.65
   1  11 -10    3.63    0.52
   1  11 -10    2.43    0.44
   1  11 -10    2.73    0.58
   1  11  -9   17.74    1.47
   1  11  -9   17.95    1.32
   1  11  -8    0.63    0.41
   1  11  -8    0.19    0.54
   1  11  -7    0.94    0.67
   1  11  -7    1.64    0.51
   1  11  -7    2.24    0.55
   1  11  -6   11.98    1.36
   1  11  -6   11.77    1.11
   1  11  -5    7.56    1.11
   1  11  -5    7.74    0.91
   1  11  -4   78.19    4.24
   1  11  -4   70.09    4.15
   1  11  -4   75.26    4.54
   1  11  -4   80.66    4.24
   1  11  -3    3.57    0.94
   1  11  -3    3.10    0.66
   1  11  -3    3.14    0.68
   1  11  -3    2.33    0.63
   1  11  -3    2.66    0.85
   1  11  -2   23.32    1.75
   1  11  -2   23.00    2.04
   1  11  -2   19.69    1.70
   1  11  -2   25.21    1.77
   1  11  -2   25.46    2.12
   1  11  -1    0.58    0.49
   1  11  -1   -0.09    0.67
   1  11  -1    0.19    0.45
   1  11  -1    0.68    0.49
   1  11  -1    0.53    0.77
   1  11  -1    0.36    0.75
   1  11   0    2.50    0.61
   1  11   0    3.15    0.63
   1  11   0    1.97    0.87
   1  11   0    4.69    0.97
   1  11   0    2.14    1.12
   1  11   0    3.90    0.71
   1  11   1    5.41    1.04
   1  11   1    4.88    0.74
   1  11   1    5.25    1.11
   1  11   1    4.85    1.47
   1  11   1    4.99    0.74
   1  11   1    4.64    0.82
   1  11   2   10.52    2.12
   1  11   2   11.00    1.07
   1  11   2   11.02    1.08
   1  11   2   12.97    1.57
   1  11   3   59.26    4.03
   1  11   3   65.32    3.66
   1  11   3   65.56    3.67
   1  11   3   55.98    3.65
   1  11   4    1.36    0.58
   1  11   4    0.74    0.44
   1  11   4    0.80    0.45
   1  11   4    0.66    0.79
   1  11   4    0.34    0.76
   1  11   5    0.32    0.51
   1  11   5    0.71    0.45
   1  11   5    1.07    1.07
   1  11   5   -0.26    0.86
   1  11   5    0.09    0.81
   1  11   5   -0.28    0.43
   1  11   6   98.63    5.56
   1  11   6  102.67    5.61
   1  11   6  101.79    7.49
   1  11   6   97.26    5.88
   1  11   7   15.60    1.37
   1  11   7   15.35    2.42
   1  11   7   14.22    1.34
   1  11   7   12.15    1.58
   1  11   8   32.92    2.53
   1  11   8   32.21    2.23
   1  11   8   28.77    3.52
   1  11   8   32.99    2.23
   1  11   8   25.87    2.44
   1  11   9    4.17    1.06
   1  11   9    5.56    1.10
   1  11   9    5.39    0.80
   1  11   9    4.85    0.82
   1  11  10  102.52    5.73
   1  11  10   90.46    5.67
   1  11  10  106.04    5.40
   1  11  10  103.63    5.49
   1  11  11    3.62    1.01
   1  11  11    5.46    1.10
   1  11  11    4.63    0.73
   1  11  12    2.70    0.56
   1  11  12    3.60    0.98
   1  11  12    3.62    0.93
   1  11  13   11.06    1.19
   1  11  13    9.31    1.26
   1  11  13    9.73    1.36
   1  11  14    5.35    0.83
   1  11  14    4.51    0.98
   1  11  14    5.13    0.95
   1  11  15   30.16    2.28
   1  11  15   36.25    2.29
   1  11  15   31.01    2.40
   1  11  16    0.05    0.40
   1  11  16   -0.16    0.56
   1  11  16   -0.43    0.62
   1  11  17   21.02    1.65
   1  11  17   19.95    1.52
   1  11  18    4.56    0.73
   1  11  18    3.78    0.53
   1  12  -9    0.13    0.22
   1  12  -8    0.89    0.33
   1  12  -8    0.38    0.42
   1  12  -8    0.75    0.32
   1  12  -7    9.72    0.86
   1  12  -7    8.84    0.82
   1  12  -7    9.20    1.01
   1  12  -6    0.72    0.40
   1  12  -6    0.06    0.50
   1  12  -5    9.84    1.14
   1  12  -5    9.98    0.95
   1  12  -4    5.47    0.72
   1  12  -4    6.13    0.96
   1  12  -4    5.65    0.74
   1  12  -3   40.97    2.51
   1  12  -3   39.64    2.77
   1  12  -3   41.68    2.50
   1  12  -3   36.79    2.44
   1  12  -2    0.75    0.63
   1  12  -2   -0.30    0.44
   1  12  -2    0.47    0.45
   1  12  -2   -0.63    0.65
   1  12  -2   -0.05    0.42
   1  12  -1   13.87    1.19
   1  12  -1   13.53    1.22
   1  12  -1   10.75    1.38
   1  12  -1   13.25    1.18
   1  12   0   20.99    1.66
   1  12   0   22.99    1.64
   1  12   0   19.23    1.87
   1  12   0   21.98    1.60
   1  12   1    0.54    0.50
   1  12   1   -0.05    0.40
   1  12   1    0.59    0.78
   1  12   1    0.46    0.41
   1  12   2   17.97    1.41
   1  12   2   21.92    1.90
   1  12   2   18.87    1.46
   1  12   3    2.98    0.91
   1  12   3    3.18    0.57
   1  12   4    3.24    0.58
   1  12   4    4.36    0.76
   1  12   4    4.03    0.98
   1  12   4    3.71    0.62
   1  12   5   46.04    2.90
   1  12   5   49.50    3.34
   1  12   6   -0.58    0.69
   1  12   6    0.18    0.47
   1  12   6   -0.09    0.86
   1  12   6   -0.28    0.41
   1  12   7   17.53    1.47
   1  12   7   19.52    1.54
   1  12   7   18.25    1.69
   1  12   8    7.05    0.92
   1  12   8    5.47    1.06
   1  12   9   29.90    2.27
   1  12   9   27.23    1.95
   1  12   9   27.97    1.92
   1  12  10    8.84    0.95
   1  12  10    6.66    1.11
   1  12  10    9.34    1.28
   1  12  10    7.49    0.99
   1  12  11    7.10    1.09
   1  12  11    7.56    1.14
   1  12  11    8.70    0.90
   1  12  11    9.77    1.04
   1  12  12   41.60    2.49
   1  12  12   36.31    2.79
   1  12  13    0.95    0.66
   1  12  13    0.36    0.65
   1  12  14   16.10    1.44
   1  12  14   19.07    1.41
   1  12  15    0.32    0.52
   1  12  15    0.43    0.52
   1  12  15    0.84    0.41
   1  12  16    3.94    0.62
   1  12  17    9.38    0.81
   1  13  -7   -0.11    0.22
   1  13  -7    0.10    0.19
   1  13  -6   19.63    1.26
   1  13  -5    0.67    0.34
   1  13  -5    1.39    0.35
   1  13  -4    3.23    0.50
   1  13  -4    4.26    0.56
   1  13  -3   12.18    1.02
   1  13  -3   12.91    1.02
   1  13  -2    4.57    0.60
   1  13  -2    4.09    0.56
   1  13  -2    3.52    0.59
   1  13  -1   40.81    2.56
   1  13  -1   42.08    2.51
   1  13  -1   45.43    2.58
   1  13   0    1.66    0.50
   1  13   0    2.33    0.66
   1  13   0    2.11    0.49
   1  13   0    2.01    0.44
   1  13   1    4.92    0.64
   1  13   1    4.54    0.68
   1  13   1    4.00    0.83
   1  13   1    3.83    0.54
   1  13   2    1.07    0.50
   1  13   2    1.05    0.39
   1  13   2    1.47    0.66
   1  13   3    2.49    0.76
   1  13   3    2.92    0.50
   1  13   4    0.32    0.30
   1  13   4    1.13    0.69
   1  13   4    0.64    0.48
   1  13   5    5.32    1.00
   1  13   5    4.57    0.76
   1  13   6   61.00    3.41
   1  13   6   51.17    3.54
   1  13   7    0.10    0.43
   1  13   7   -0.42    0.72
   1  13   8   13.54    1.19
   1  13   8   15.61    1.25
   1  13   9    1.48    0.48
   1  13   9    1.81    0.49
   1  13  10    1.38    0.47
   1  13  10    2.00    0.46
   1  13  10    2.37    0.75
   1  13  11   24.52    1.64
   1  13  11   26.91    1.80
   1  13  11   27.31    1.99
   1  13  12    6.83    0.81
   1  13  12    8.04    0.98
   1  13  13   34.45    2.27
   1  13  14    0.43    0.43
   1  13  15    3.26    0.51
   1  14  -4    0.16    0.18
   1  14  -3    5.67    0.53
   1  14  -2   21.43    1.32
   1  14  -1    7.90    0.66
   1  14  -1    6.81    0.62
   1  14   0   23.28    1.49
   1  14   0   24.64    1.52
   1  14   1    2.06    0.37
   1  14   1    1.50    0.40
   1  14   2    4.05    0.66
   1  14   2    5.11    0.52
   1  14   2    5.55    0.63
   1  14   3   10.79    1.03
   1  14   4    0.58    0.39
   1  14   4    0.87    0.48
   1  14   5   11.79    1.18
   1  14   5   14.53    1.12
   1  14   6    5.51    0.81
   1  14   6    6.34    0.71
   1  14   7   12.85    1.25
   1  14   7   15.70    1.15
   1  14   8   19.36    1.55
   1  14   8   20.76    1.40
   1  14   9    1.77    0.39
   1  14  10   12.44    0.90
   1  14  11    0.59    0.44
   1  14  12   10.39    0.92
   1  14  13    0.14    0.27
   1  15   3    0.09    0.17
   1  15   5    0.34    0.20
   1  15   6    1.10    0.24
  -2  13   9    0.28    0.29
  -2  13   8   -0.27    0.36
  -2  13   8    0.13    0.22
  -2  13   7    1.87    0.37
  -2  13   6    0.50    0.30
  -2  13   5   10.61    0.89
  -2  13   4    5.71    0.64
  -2  13   3    3.39    0.52
  -2  13   1   -0.06    0.29
  -2  13   1   -0.21    0.21
  -2  13   0   14.61    0.99
  -2  13   0   16.80    1.10
  -2  13  -1    2.23    0.34
  -2  13  -1    2.06    0.36
  -2  13  -2   17.07    1.08
  -2  13  -3    0.27    0.21
  -2  12  12    9.32    0.98
  -2  12  12   11.68    0.91
  -2  12  11    9.24    1.00
  -2  12  11   10.94    0.91
  -2  12  10    1.60    0.42
  -2  12  10    1.70    0.56
  -2  12  10    1.52    0.33
  -2  12   9    0.05    0.55
  -2  12   9    0.04    0.34
   2 -12  -9    0.72    0.28
  -2  12   9    0.35    0.30
  -2  12   8    2.53    0.51
  -2  12   8    2.33    0.68
  -2  12   8    2.03    0.46
  -2  12   7   10.89    0.93
  -2  12   7    9.53    1.09
  -2  12   7   11.01    0.97
  -2  12   6   15.79    1.43
  -2  12   6   17.18    1.30
  -2  12   5    0.05    0.56
  -2  12   5    0.83    0.46
  -2  12   4    0.09    0.43
  -2  12   4    0.16    0.48
  -2  12   3   -0.14    0.45
  -2  12   2    6.28    0.65
  -2  12   1   13.60    1.16
  -2  12   1   14.47    1.08
  -2  12   0    8.26    0.86
  -2  12   0    8.34    0.80
  -2  12  -1   32.98    2.03
  -2  12  -1   32.63    2.06
  -2  12  -2    4.95    0.61
  -2  12  -2    3.28    0.47
  -2  12  -2    5.04    0.62
  -2  12  -3    0.03    0.33
  -2  12  -3    0.10    0.36
  -2  12  -3   -0.27    0.29
  -2  12  -4    3.13    0.49
  -2  12  -4    2.61    0.42
  -2  12  -5    9.24    0.76
  -2  12  -5    7.26    0.66
  -2  12  -6   28.05    1.66
  -2  12  -6   27.16    1.60
  -2  12  -7    1.17    0.27
  -2  11  16    0.24    0.27
  -2  11  15   11.25    1.03
  -2  11  15   13.16    0.97
  -2  11  14   23.26    1.50
  -2  11  14   20.01    1.60
  -2  11  13   13.68    1.11
  -2  11  11   31.50    2.01
  -2  11  11   26.28    2.13
  -2  11  10   -0.05    0.41
  -2  11  10    0.19    0.36
  -2  11  10    0.07    0.64
  -2  11   9   60.22    3.36
  -2  11   9   58.94    3.68
  -2  11   9   55.47    3.41
  -2  11   8   12.82    1.12
  -2  11   8   10.77    1.35
  -2  11   8   11.52    1.11
  -2  11   7   57.59    3.32
  -2  11   7   50.86    3.52
  -2  11   7   57.63    3.32
  -2  11   6    0.52    0.67
  -2  11   6   -0.05    0.41
  -2  11   6    0.38    0.43
  -2  11   5    1.42    0.72
  -2  11   5    1.52    0.44
  -2  11   5    1.61    0.51
  -2  11   4   32.06    2.42
  -2  11   4   34.37    2.25
  -2  11   4   31.82    2.08
  -2  11   3    3.71    0.56
  -2  11   3    4.13    0.69
  -2  11   3    3.14    0.83
  -2  11   2   52.37    3.61
  -2  11   2   64.30    3.43
  -2  11   1   -0.23    0.45
  -2  11   0   14.34    1.19
  -2  11   0   13.25    1.21
  -2  11  -1    1.45    0.51
  -2  11  -1    2.56    0.57
  -2  11  -1    1.72    0.47
  -2  11  -2   -0.40    0.44
  -2  11  -2    0.34    0.39
  -2  11  -2   -0.08    0.35
  -2  11  -2   -0.05    0.42
  -2  11  -3   71.70    3.90
  -2  11  -3   74.26    3.96
  -2  11  -3   64.33    3.89
  -2  11  -4    1.56    0.49
  -2  11  -4    1.78    0.48
  -2  11  -4    1.39    0.42
  -2  11  -5    0.45    0.34
  -2  11  -5    0.17    0.40
  -2  11  -6   15.55    1.21
  -2  11  -6   17.43    1.26
  -2  11  -7    9.58    0.86
  -2  11  -8    9.73    0.81
  -2  11  -8    8.48    0.78
  -2  11  -9   -0.30    0.25
  -2  11  -9    0.05    0.24
  -2  11 -10   31.63    1.80
  -2  10  17    1.56    0.42
  -2  10  17    1.14    0.28
  -2  10  16    0.42    0.31
  -2  10  16   -0.02    0.24
  -2  10  16    0.25    0.45
  -2  10  15   27.30    1.76
  -2  10  15   29.99    2.08
  -2  10  15   32.91    1.95
  -2  10  14    2.92    0.60
  -2  10  14    3.05    0.80
  -2  10  14    2.18    0.44
  -2  10  13    7.93    1.09
  -2  10  13    7.09    0.87
  -2  10  13    6.84    0.73
  -2  10  12    8.06    0.79
  -2  10  12    9.11    0.99
  -2  10  11    1.24    0.41
  -2  10  10    2.17    0.50
  -2  10  10    1.45    0.42
  -2  10   9    5.82    0.83
  -2  10   9    4.29    0.67
  -2  10   9    4.43    1.04
  -2  10   8   71.89    4.16
  -2  10   8   68.20    4.41
  -2  10   8   73.24    4.12
  -2  10   7   16.60    1.34
  -2  10   7   13.82    1.57
  -2  10   7   12.75    1.27
  -2  10   6    0.53    0.47
  -2  10   6    0.60    0.74
  -2  10   6    0.17    0.40
  -2  10   5    6.10    1.72
  -2  10   5    8.91    0.98
  -2  10   5    7.11    0.87
   2 -10  -5   10.04    2.02
  -2  10   5    8.41    1.19
  -2  10   4    1.86    0.77
  -2  10   4    1.46    0.47
  -2  10   4    1.47    0.41
  -2  10   4    0.51    0.88
   2 -10  -4    2.10    1.08
  -2  10   4    2.42    0.61
  -2  10   3   29.57    2.34
  -2  10   3   31.16    2.08
  -2  10   3   27.45    1.91
   2 -10  -3   25.96    3.39
  -2  10   3   29.25    1.92
  -2  10   3   25.67    3.21
  -2  10   2    1.15    0.58
  -2  10   2    1.40    0.42
  -2  10   2    0.49    0.67
  -2  10   2    1.69    0.49
  -2  10   1   23.98    2.06
  -2  10   1   24.24    2.99
  -2  10   1   25.52    1.78
  -2  10   0   54.71    3.15
  -2  10   0   51.77    3.01
  -2  10   0   44.26    4.51
  -2  10   0   43.55    3.23
  -2  10   0   53.75    3.10
  -2  10  -1    3.50    0.68
  -2  10  -1    4.67    0.68
  -2  10  -1    5.70    0.77
  -2  10  -2   89.77    5.28
  -2  10  -2   98.74    5.30
  -2  10  -2  101.26    5.34
  -2  10  -3    6.07    0.78
  -2  10  -3    5.36    0.81
  -2  10  -3    5.65    0.79
  -2  10  -4   50.13    3.03
  -2  10  -4   53.06    3.07
  -2  10  -4   47.41    2.98
  -2  10  -5   36.27    2.20
  -2  10  -5   28.14    2.04
  -2  10  -5   34.56    2.20
  -2  10  -5   31.98    2.10
  -2  10  -6   -0.31    0.45
  -2  10  -7   19.17    1.45
  -2  10  -8    2.41    0.55
  -2  10  -8    2.81    0.51
  -2  10  -8    2.59    0.56
  -2  10  -9   77.13    4.09
  -2  10  -9   78.71    4.10
  -2  10  -9   68.48    3.96
  -2  10 -10    3.48    0.54
  -2  10 -10    3.76    0.53
  -2  10 -11   24.59    1.50
  -2   9  18    3.14    0.54
  -2   9  18    3.97    0.46
  -2   9  17    4.97    0.56
  -2   9  17    3.78    0.69
  -2   9  17    3.75    0.52
  -2   9  16   45.02    2.62
  -2   9  16   42.32    2.57
  -2   9  15    0.79    0.43
  -2   9  15   -0.44    0.47
  -2   9  14   28.18    1.98
  -2   9  14   27.90    1.89
  -2   9  13   24.29    1.79
  -2   9  13   27.83    1.96
  -2   9  12    1.19    0.59
  -2   9  12    0.95    0.45
  -2   9  11   30.97    2.20
  -2   9  11   30.90    2.08
  -2   9  10   34.37    2.27
  -2   9  10   34.85    2.23
  -2   9   9   97.01    5.03
  -2   9   9   88.38    4.96
   2  -9  -9   75.02    6.97
   2  -9  -9   82.32    7.06
  -2   9   8   19.60    1.59
  -2   9   8   19.09    1.49
   2  -9  -8   17.09    2.72
   2  -9  -8   18.51    2.82
  -2   9   8   15.05    2.40
  -2   9   8   18.26    1.41
  -2   9   7    1.43    0.53
   2  -9  -7    1.08    0.88
  -2   9   7    0.31    0.47
   2  -9  -7    2.16    1.24
  -2   9   7    1.20    0.86
  -2   9   7    1.12    0.39
  -2   9   6    3.57    0.68
   2  -9  -6    4.88    1.55
  -2   9   6    3.13    0.64
  -2   9   6    2.44    1.11
  -2   9   5    0.53    0.43
   2  -9  -5    1.50    0.98
  -2   9   5    0.17    0.38
  -2   9   5    0.25    0.84
  -2   9   4   16.66    1.34
  -2   9   4   17.30    2.48
  -2   9   4   16.53    1.67
  -2   9   4   16.43    1.26
   2  -9  -4   11.81    2.34
  -2   9   4   15.10    2.65
  -2   9   4   16.85    1.40
  -2   9   3   16.54    1.63
  -2   9   3   13.60    2.26
   2  -9  -3   16.98    2.58
  -2   9   3   14.09    1.30
  -2   9   3   14.69    1.21
  -2   9   3   15.48    1.25
  -2   9   3   17.96    2.78
  -2   9   2   24.36    1.66
  -2   9   2   21.51    1.71
   2  -9  -2   28.88    3.38
  -2   9   2   22.93    2.02
  -2   9   2   24.54    1.69
  -2   9   2   22.57    3.26
  -2   9   1   25.63    3.31
  -2   9   1   23.94    1.68
  -2   9   1   27.08    2.18
  -2   9   1   25.10    1.77
   2  -9  -1   26.91    3.24
  -2   9   0    0.97    0.93
  -2   9   0    0.74    0.46
  -2   9   0    1.36    1.01
  -2   9   0    0.12    0.44
  -2   9   0    0.16    0.73
  -2   9   0    1.27    0.43
  -2   9  -1   91.80    5.04
  -2   9  -1   92.97    5.08
  -2   9  -1   85.41    6.88
  -2   9  -1   96.91    5.05
  -2   9  -1   91.19    6.74
  -2   9  -1   81.94    5.24
  -2   9  -2    5.64    0.78
  -2   9  -2    4.63    0.72
  -2   9  -2    5.88    0.95
  -2   9  -2    5.16    0.73
  -2   9  -2    4.03    1.34
  -2   9  -3   23.59    1.70
  -2   9  -3   26.01    1.78
  -2   9  -3   18.26    2.61
  -2   9  -3   22.47    1.94
  -2   9  -3   22.18    1.70
  -2   9  -4   10.30    1.05
  -2   9  -4    8.64    0.96
  -2   9  -4   10.13    1.79
  -2   9  -4    8.47    1.19
  -2   9  -4   11.94    1.12
  -2   9  -5    2.30    0.72
  -2   9  -5    3.07    0.65
  -2   9  -5    2.83    0.56
  -2   9  -5    2.14    0.60
  -2   9  -5    3.14    1.09
  -2   9  -6    6.57    0.80
  -2   9  -6    6.89    0.98
  -2   9  -6    4.79    0.68
  -2   9  -6    6.16    0.84
  -2   9  -7    0.74    0.49
  -2   9  -7   -0.10    0.47
  -2   9  -7    0.87    0.55
  -2   9  -7    0.40    0.52
  -2   9  -8  145.52    7.38
  -2   9  -8  140.74    7.37
  -2   9  -8  128.92    7.46
  -2   9  -8  137.83    7.33
  -2   9  -9    2.66    0.61
  -2   9  -9    2.62    0.64
  -2   9  -9    1.81    0.58
  -2   9  -9    2.79    0.62
  -2   9 -10   31.51    2.09
  -2   9 -10   33.07    2.11
  -2   9 -10   28.65    2.13
  -2   9 -10   36.63    2.18
  -2   9 -11   38.20    2.34
  -2   9 -11   37.81    2.30
  -2   9 -12    0.50    0.39
  -2   9 -12   -0.04    0.39
  -2   9 -13   28.84    1.72
  -2   9 -13   26.52    1.68
  -2   9 -14    1.80    0.33
  -2   9 -14    1.50    0.30
  -2   8  19    6.98    0.70
  -2   8  18    7.47    0.69
  -2   8  18   10.91    0.88
  -2   8  17   24.86    1.65
  -2   8  17   21.98    1.56
  -2   8  16   28.15    1.92
  -2   8  16   26.58    1.86
  -2   8  15   14.81    1.30
  -2   8  15   14.44    1.29
  -2   8  14    4.20    0.75
  -2   8  14    4.81    0.77
  -2   8  13    3.87    0.73
  -2   8  13    3.81    0.76
  -2   8  12  137.22    7.14
   2  -8 -12  116.27    9.17
   2  -8 -12  123.21    9.35
  -2   8  12  130.27    7.07
   2  -8 -11    0.63    0.97
  -2   8  11    1.21    0.61
  -2   8  11    0.18    0.49
   2  -8 -11    2.51    1.21
   2  -8 -11    0.61    0.90
  -2   8  10   33.04    2.15
   2  -8 -10   31.75    3.83
  -2   8  10   35.11    2.35
  -2   8  10   32.72    2.25
   2  -8 -10   27.00    3.83
  -2   8   9    0.75    0.43
  -2   8   9    1.29    0.81
  -2   8   9    2.16    0.49
   2  -8  -9    1.77    1.10
  -2   8   8    0.28    0.44
  -2   8   8    0.88    0.88
  -2   8   8    0.16    0.40
   2  -8  -8   -0.28    0.92
   2  -8  -7  240.23   14.67
  -2   8   7  244.34   12.46
  -2   8   7  244.38   12.54
  -2   8   7  240.81   14.23
  -2   8   6    5.29    0.74
   2  -8  -6    3.29    1.16
  -2   8   6    4.72    1.35
  -2   8   6    5.08    0.76
  -2   8   5   54.70    3.36
  -2   8   5   62.21    4.93
  -2   8   5   58.69    3.39
   2  -8  -5   52.54    4.76
   2  -8  -4    1.08    0.97
   2  -8  -4    0.66    0.78
  -2   8   4    1.23    0.48
  -2   8   4    0.45    0.81
  -2   8   4    0.59    0.40
  -2   8   3   23.95    1.68
  -2   8   3   22.03    2.80
   2  -8  -3   26.06    3.22
  -2   8   3   23.46    1.71
  -2   8   2   25.82    2.21
  -2   8   2   33.42    2.07
   2  -8  -2   29.31    3.36
  -2   8   2   27.54    1.90
  -2   8   2   35.86    3.89
  -2   8   1    4.17    1.58
   2  -8  -1    5.38    1.37
  -2   8   1    4.15    0.80
  -2   8   1    3.17    0.52
  -2   8   0   68.74    4.28
  -2   8   0   72.24    4.07
  -2   8   0   69.59    3.97
   2  -8   0   75.83    5.72
  -2   8   0   78.71    5.73
  -2   8   0   69.35    5.98
  -2   8  -1    8.81    1.70
  -2   8  -1    8.63    0.88
  -2   8  -1    9.64    1.94
  -2   8  -1    7.49    1.07
  -2   8  -1    7.54    1.05
  -2   8  -1    8.23    0.89
  -2   8  -2   91.73    4.92
  -2   8  -2   85.79    5.16
  -2   8  -2   87.27    4.90
  -2   8  -2   89.86    6.91
  -2   8  -2   87.45    6.41
  -2   8  -3    4.17    0.69
  -2   8  -3    3.63    0.63
  -2   8  -3    4.05    0.81
  -2   8  -3    4.47    1.45
  -2   8  -3    5.90    1.41
  -2   8  -4   11.75    1.31
  -2   8  -4   13.18    1.18
  -2   8  -4   11.80    1.09
  -2   8  -4   11.59    1.99
  -2   8  -4   12.45    1.16
  -2   8  -5   63.37    4.12
  -2   8  -5   70.94    3.98
  -2   8  -5   68.24    3.89
  -2   8  -5   68.36    3.92
  -2   8  -5   69.80    5.39
  -2   8  -6   13.65    2.10
  -2   8  -6   13.48    1.18
  -2   8  -6   13.75    1.42
  -2   8  -6   14.55    1.31
  -2   8  -6   15.93    1.30
  -2   8  -7    9.22    1.01
  -2   8  -7    7.80    1.05
  -2   8  -7    6.90    0.80
  -2   8  -7    7.17    0.92
  -2   8  -7    7.19    0.91
  -2   8  -8   74.83    4.48
  -2   8  -8   75.93    4.33
  -2   8  -8   73.56    4.33
  -2   8  -8   76.21    4.32
  -2   8  -9   76.17    4.68
  -2   8  -9   82.87    4.61
  -2   8  -9   83.58    4.61
  -2   8  -9   79.38    4.56
  -2   8 -10   62.12    3.66
  -2   8 -10   64.86    3.65
  -2   8 -10   58.03    3.72
  -2   8 -11    0.06    0.44
  -2   8 -11    0.20    0.44
  -2   8 -11    0.72    0.52
  -2   8 -12   87.83    4.95
  -2   8 -12   87.37    5.05
  -2   8 -12   94.37    5.08
  -2   8 -12  101.96    5.13
  -2   8 -13    0.74    0.43
  -2   8 -13    1.45    0.49
  -2   8 -14   22.79    1.53
  -2   8 -14   24.02    1.59
  -2   8 -15    0.36    0.33
  -2   8 -15   -0.05    0.27
  -2   8 -16    0.46    0.24
  -2   7  20    5.07    0.55
  -2   7  19    1.32    0.40
  -2   7  18   22.35    1.60
  -2   7  17    1.03    0.38
  -2   7  16    9.29    0.95
  -2   7  15   58.33    3.50
  -2   7  14    3.33    0.73
  -2   7  14    4.18    0.73
  -2   7  13   22.06    1.78
   2  -7 -13   25.19    3.16
   2  -7 -13   17.15    2.96
  -2   7  13   26.11    1.88
   2  -7 -13   18.71    3.06
   2  -7 -12   28.25    3.72
  -2   7  12   41.10    2.54
   2  -7 -12   30.79    4.00
  -2   7  12   37.15    2.49
   2  -7 -12   28.54    3.97
   2  -7 -11   16.34    2.70
   2  -7 -11   14.35    2.54
   2  -7 -11   15.08    2.52
  -2   7  11   16.09    1.43
  -2   7  11   14.77    1.39
   2  -7 -10   46.51    5.13
   2  -7 -10   53.35    5.21
  -2   7  10   57.66    3.43
  -2   7  10   55.57    3.41
  -2   7   9    1.21    0.53
  -2   7   9    1.27    0.53
   2  -7  -9    0.57    0.89
  -2   7   9    1.75    0.85
  -2   7   9    1.85    0.43
   2  -7  -8   83.74    6.43
  -2   7   8   78.84    4.41
  -2   7   8   77.78    5.77
  -2   7   7  208.91   12.10
   2  -7  -7  212.91   12.67
  -2   7   7  200.19   10.44
  -2   7   6  217.34   11.12
  -2   7   6  217.43   11.17
  -2   7   6  214.63   12.65
   2  -7  -6  215.92   13.09
   2  -7  -5    9.51    1.72
  -2   7   5   10.10    1.71
  -2   7   5    7.81    0.86
   2  -7  -5    7.78    0.80
  -2   7   5    8.05    0.90
   2  -7  -4   17.98    2.31
  -2   7   4   17.25    1.40
  -2   7   4   19.16    2.41
  -2   7   4   20.72    1.46
  -2   7   3   83.42    4.78
  -2   7   3   91.73    6.34
   2  -7  -3  102.93    6.36
  -2   7   3   87.75    4.82
  -2   7   2    1.06    0.38
  -2   7   2    0.80    0.41
   2  -7  -2    2.33    0.83
  -2   7   2    2.94    1.07
   2  -7  -1  122.06    8.43
  -2   7   1  129.77    8.26
  -2   7   1  136.45    8.96
   2  -7   0   27.37    2.81
  -2   7   0   19.81    1.73
  -2   7   0   28.10    3.13
  -2   7   0   21.84    1.58
  -2   7   0   20.71    1.73
  -2   7   0   21.94    1.50
   2  -7   1   83.00    5.87
  -2   7  -1   77.32    5.71
  -2   7  -1   82.80    4.46
  -2   7  -1   78.18    4.37
  -2   7  -1   85.67    6.34
  -2   7  -1   77.87    4.63
  -2   7  -2   11.61    1.07
  -2   7  -2   11.60    1.19
  -2   7  -2   13.17    2.20
   2  -7   2   12.72    1.79
  -2   7  -2   12.99    1.95
  -2   7  -3   31.58    3.31
  -2   7  -3   38.67    2.53
  -2   7  -3   35.16    2.28
  -2   7  -3   37.33    3.83
  -2   7  -4  428.94   21.07
  -2   7  -4  406.73   20.82
  -2   7  -4  442.07   23.13
  -2   7  -4  410.50   22.44
  -2   7  -5   23.31    1.66
  -2   7  -5   23.12    1.83
  -2   7  -5   21.73    2.60
  -2   7  -5   22.83    1.64
  -2   7  -6  308.69   15.69
  -2   7  -6  317.94   15.98
  -2   7  -6  313.86   17.36
  -2   7  -6  300.65   15.78
  -2   7  -6  321.69   15.78
  -2   7  -7   11.89    1.06
  -2   7  -7   11.99    1.20
  -2   7  -7   13.74    1.21
  -2   7  -7   11.72    1.26
  -2   7  -7   12.47    1.85
  -2   7  -7   13.95    1.22
  -2   7  -8    0.51    0.59
  -2   7  -8    0.24    0.49
  -2   7  -8    0.30    0.50
  -2   7  -8    0.25    0.53
  -2   7  -9   30.18    2.08
  -2   7  -9   28.74    2.04
  -2   7  -9   27.23    2.13
  -2   7 -10    9.81    1.03
  -2   7 -10   10.02    1.12
  -2   7 -10    9.28    1.06
  -2   7 -11  156.23    8.19
  -2   7 -11  155.38    8.10
  -2   7 -11  151.76    8.22
  -2   7 -11  151.26    8.17
  -2   7 -12    0.36    0.51
  -2   7 -12    0.83    0.44
  -2   7 -12   -0.37    0.48
  -2   7 -12    0.65    0.53
  -2   7 -13   85.25    4.67
  -2   7 -13   75.86    4.58
  -2   7 -13   85.61    4.63
  -2   7 -14   34.20    2.20
  -2   7 -14   31.92    2.12
  -2   7 -15    0.32    0.45
  -2   7 -15    0.59    0.36
  -2   7 -16   41.61    2.45
  -2   7 -17    1.76    0.38
  -2   6  21   14.66    0.97
   2  -6 -20    4.86    0.56
  -2   6  20   12.18    0.82
  -2   6  19   38.21    2.34
  -2   6  18   -0.15    0.45
  -2   6  17    7.79    0.97
  -2   6  17    7.86    0.80
  -2   6  16   56.66    3.41
  -2   6  16   61.13    3.61
  -2   6  15    7.86    0.92
  -2   6  15    5.96    1.09
   2  -6 -14   32.65    3.86
  -2   6  14   21.50    2.15
   2  -6 -14   24.43    3.22
   2  -6 -14   26.61    3.60
  -2   6  14   32.12    2.06
   2  -6 -13    0.28    0.88
   2  -6 -13    0.33    1.03
  -2   6  13    1.03    0.52
   2  -6 -12   21.17    2.91
   2  -6 -12   17.30    2.85
  -2   6  12   18.93    1.64
  -2   6  12   22.99    1.68
  -2   6  11   20.20    1.60
   2  -6 -11   17.40    2.79
   2  -6 -11   15.67    2.75
  -2   6  11   18.59    1.58
   2  -6 -10   -0.29    0.79
   2  -6 -10    1.27    1.14
  -2   6  10    1.15    0.53
  -2   6  10    0.56    0.48
   2  -6  -9   88.36    7.03
  -2   6   9   96.26    5.22
  -2   6   9   89.38    6.21
  -2   6   8    6.21    0.80
  -2   6   8    5.08    0.63
   2  -6  -8    6.29    1.56
  -2   6   8    4.29    1.12
   2  -6  -7  137.76    8.90
  -2   6   7  125.88    6.98
  -2   6   7  130.87    6.90
  -2   6   7  150.37    8.42
   2  -6  -6    2.38    1.10
  -2   6   6    1.37    0.80
  -2   6   5   19.31    2.25
   2  -6  -5   19.39    2.38
  -2   6   5   17.71    1.39
   2  -6  -4    6.43    1.32
  -2   6   4    4.77    1.27
  -2   6   3   10.34    1.65
   2  -6  -3   10.41    1.56
   2  -6  -2   25.79    2.55
  -2   6   2   29.61    2.80
   2  -6  -1    1.61    0.70
  -2   6   0   39.03    3.58
   2  -6   0   28.54    2.94
   2  -6   1   22.33    2.36
  -2   6  -1   23.07    2.73
  -2   6  -1   18.60    2.28
  -2   6  -2   22.63    2.45
   2  -6   2   23.43    2.38
  -2   6  -2   24.20    2.77
  -2   6  -3  549.16   27.14
  -2   6  -3  518.11   26.54
   2  -6   3  507.08   26.22
  -2   6  -3  496.65   25.12
  -2   6  -4    1.55    0.43
  -2   6  -4    1.96    0.98
  -2   6  -4    2.56    0.94
  -2   6  -4    1.14    0.43
  -2   6  -5  137.36    7.38
  -2   6  -5  150.26    8.74
  -2   6  -5  138.81    7.32
  -2   6  -5  143.99    7.52
  -2   6  -5  139.01    9.10
  -2   6  -6  120.15    7.57
  -2   6  -6  129.72    6.50
  -2   6  -6  111.66    6.22
  -2   6  -6  117.60    6.36
  -2   6  -7   12.05    1.16
  -2   6  -7   10.82    1.10
  -2   6  -7    9.04    1.55
  -2   6  -8    1.89    0.55
  -2   6  -9   18.75    1.46
  -2   6  -9   15.33    1.45
  -2   6 -10  350.91   18.15
  -2   6 -10  363.20   18.10
  -2   6 -10  363.17   18.22
  -2   6 -11    0.32    0.53
  -2   6 -11    0.06    0.42
  -2   6 -11   -0.54    0.44
  -2   6 -12   86.81    4.93
  -2   6 -12   87.33    4.95
  -2   6 -12   85.60    4.78
  -2   6 -13  123.51    6.54
  -2   6 -13  126.16    6.56
  -2   6 -13  110.63    6.28
  -2   6 -13  124.85    6.55
  -2   6 -14    2.85    0.72
  -2   6 -14    2.54    0.64
  -2   6 -14    3.15    0.64
  -2   6 -15  104.32    5.47
  -2   6 -15   92.53    5.44
  -2   6 -15  109.33    5.60
  -2   6 -16    0.10    0.49
  -2   6 -17   68.47    3.81
  -2   6 -18    1.26    0.39
  -2   5  21    0.56    0.26
   2  -5 -20   12.05    1.01
  -2   5  20   20.68    1.22
  -2   5  19    1.42    0.47
   2  -5 -19    1.07    0.44
  -2   5  18   -0.91    0.73
  -2   5  18   -0.16    0.42
  -2   5  17   23.15    1.77
  -2   5  16    8.53    1.03
   2  -5 -15   64.49    6.04
  -2   5  15   71.40    3.98
  -2   5  15   61.64    3.74
   2  -5 -15   57.96    6.09
   2  -5 -14   60.78    5.65
   2  -5 -14   52.00    4.86
  -2   5  14   61.23    3.57
  -2   5  14   53.94    3.36
   2  -5 -14   52.27    5.47
  -2   5  13   77.03    4.50
   2  -5 -13   78.13    6.79
   2  -5 -13   69.39    6.70
  -2   5  13   84.32    4.66
   2  -5 -13   76.86    6.28
   2  -5 -12    3.13    1.22
  -2   5  12    3.61    0.69
   2  -5 -12    4.32    1.51
  -2   5  11    1.99    0.57
   2  -5 -11    1.28    1.10
   2  -5 -10  216.48   12.51
   2  -5 -10  178.72   12.44
  -2   5  10  193.44   10.11
  -2   5   9    7.22    1.28
  -2   5   9    8.00    0.90
   2  -5  -9    9.55    1.93
  -2   5   8   39.03    3.33
  -2   5   8   42.21    2.64
  -2   5   7    0.29    0.55
   2  -5  -7    2.13    1.03
   2  -5  -6  110.20    7.28
  -2   5   6  109.28    6.90
   2  -5  -5  867.11   43.66
  -2   5   5  849.94   43.28
   2  -5  -4    0.32    0.63
  -2   5   4    0.87    0.86
   2  -5  -3  256.50   14.43
  -2   5   3  273.36   14.49
   2  -5  -2   68.56    4.61
  -2   5   2   65.40    4.69
   2  -5  -1  104.95    6.35
   2  -5   0   18.57    1.77
   2  -5   1   27.64    2.47
  -2   5  -1   24.16    2.43
  -2   5  -1   26.42    2.74
   2  -5   2  272.84   14.47
  -2   5  -2  258.77   14.50
  -2   5  -2  272.30   14.93
  -2   5  -3   13.43    1.76
  -2   5  -3   15.29    2.09
   2  -5   3   18.84    1.85
  -2   5  -4  748.61   38.48
   2  -5   4  764.91   38.15
  -2   5  -4  763.34   38.93
  -2   5  -5   74.51    5.04
  -2   5  -5   71.87    5.40
  -2   5  -6   32.16    2.10
  -2   5  -6   36.00    2.99
  -2   5  -7  195.90   10.40
  -2   5  -7  205.16   11.46
  -2   5  -7  210.22   10.49
  -2   5  -8    4.82    0.69
  -2   5  -8    5.60    0.74
  -2   5  -8    3.86    0.92
  -2   5  -9   76.46    4.48
  -2   5  -9   80.30    4.51
  -2   5  -9   80.53    4.49
  -2   5 -10    0.43    0.46
  -2   5 -10    0.50    0.44
  -2   5 -10    0.21    0.45
  -2   5 -11  143.61    7.54
  -2   5 -11  136.76    7.35
  -2   5 -11  139.33    7.51
  -2   5 -12   28.61    2.17
  -2   5 -12   33.74    2.29
  -2   5 -12   32.31    2.23
  -2   5 -12   31.18    2.05
  -2   5 -13    1.11    0.50
  -2   5 -13    0.96    0.51
  -2   5 -13    0.49    0.57
  -2   5 -14   70.03    4.13
  -2   5 -14   72.18    4.14
  -2   5 -15    4.65    0.69
  -2   5 -15    4.08    0.66
  -2   5 -16   44.40    2.63
  -2   5 -16   39.44    2.47
  -2   5 -16   36.72    2.36
  -2   5 -17    5.02    0.77
  -2   4  21   63.26    3.39
   2  -4 -20   36.97    2.44
  -2   4  20   56.38    2.66
   2  -4 -19    3.31    0.60
  -2   4  19    4.74    0.66
   2  -4 -19    3.21    0.51
   2  -4 -18   13.43    1.15
  -2   4  18   16.13    1.30
  -2   4  17    1.62    0.57
  -2   4  16  111.11    6.13
   2  -4 -15   19.69    2.91
  -2   4  15   17.31    1.47
  -2   4  14   60.02    3.61
  -2   4  14   68.26    3.82
   2  -4 -14   56.65    5.62
   2  -4 -14   56.83    5.97
  -2   4  13   72.28    4.35
   2  -4 -13   74.72    6.77
   2  -4 -13   79.32    6.05
   2  -4 -13   92.72    6.99
  -2   4  13   81.27    4.52
  -2   4  12    0.06    0.48
   2  -4 -12    0.29    1.01
  -2   4  12   -0.06    0.40
   2  -4 -12   -0.33    0.83
   2  -4 -12    0.23    0.87
  -2   4  11  490.79   23.77
   2  -4 -11  485.14   26.15
   2  -4 -11  454.81   26.34
   2  -4 -11  469.38   25.50
  -2   4  11  463.92   23.69
  -2   4  10    5.12    0.71
   2  -4 -10    6.77    1.82
   2  -4  -9  156.57    9.56
  -2   4   9  143.94    8.26
   2  -4  -9  135.74    9.65
   2  -4  -8   14.95    2.10
  -2   4   8   11.21    1.45
  -2   4   7   40.31    3.10
   2  -4  -7   39.10    3.57
  -2   4   6   19.15    2.00
   2  -4  -6   24.32    2.50
  -2   4   5  106.52    6.54
   2  -4  -5  110.64    6.91
   2  -4  -4 2103.26  104.29
  -2   4   4 2124.16  104.06
   2  -4  -3    4.70    1.06
  -2   4   3    4.84    1.08
  -2   4   2  257.29   13.43
   2  -4  -2  242.56   13.34
   2  -4  -1  234.57   12.51
   2  -4   0    0.46    0.45
   2  -4   1    1.68    0.74
   2  -4   2   52.04    3.58
  -2   4  -2   53.79    3.91
  -2   4  -2   47.38    3.52
   2  -4   3  399.99   19.69
  -2   4  -3  365.86   19.70
  -2   4  -3  370.93   20.02
  -2   4  -4   13.79    1.60
  -2   4  -4   12.20    1.72
   2  -4   4   13.43    1.43
  -2   4  -5   17.31    1.84
  -2   4  -5   16.81    2.06
  -2   4  -6  152.47    8.74
  -2   4  -7   22.05    2.10
  -2   4  -8   42.47    2.56
  -2   4  -8   41.40    2.53
  -2   4  -8   40.63    3.11
   2  -4   9   73.18    5.02
  -2   4  -9   68.21    4.03
  -2   4  -9   73.71    4.07
  -2   4  -9   70.59    4.02
  -2   4 -10   10.04    1.07
  -2   4 -10   11.40    1.08
  -2   4 -10   12.15    1.12
  -2   4 -11   26.02    1.82
  -2   4 -11   28.13    1.99
  -2   4 -11   29.14    1.98
  -2   4 -11   26.48    1.93
  -2   4 -12    9.95    1.04
  -2   4 -12    8.70    1.04
  -2   4 -13   64.90    3.97
  -2   4 -13   71.89    4.09
  -2   4 -13   67.57    4.01
  -2   4 -14    0.28    0.57
  -2   4 -14    0.33    0.43
  -2   4 -14    0.84    0.50
  -2   4 -15   48.77    2.92
  -2   4 -15   47.96    3.03
   2  -4  15   45.69    2.93
  -2   4 -15   41.94    2.80
  -2   4 -16   12.10    1.15
  -2   4 -16   11.78    1.07
   2  -4  16   14.22    1.21
  -2   4 -17    8.53    0.89
  -2   4 -19    7.96    0.85
  -2   4 -20  118.04    6.08
   2  -3 -22    8.36    0.72
  -2   3  21    0.23    0.22
  -2   3  21    1.31    0.50
  -2   3  20    1.10    0.38
   2  -3 -20    1.03    0.33
   2  -3 -19   32.26    2.03
  -2   3  19   33.91    2.07
   2  -3 -19   27.77    2.03
  -2   3  18    2.22    0.55
   2  -3 -18    1.33    0.44
   2  -3 -18    0.50    0.52
  -2   3  17   58.56    3.42
   2  -3 -17   54.56    3.41
  -2   3  16    0.43    0.51
   2  -3 -16    1.09    0.99
   2  -3 -15   48.03    5.16
   2  -3 -15   43.31    4.61
  -2   3  15   45.92    2.91
   2  -3 -14   66.34    5.90
   2  -3 -14   68.15    6.30
  -2   3  14   65.43    3.89
   2  -3 -13    2.44    1.41
   2  -3 -13    3.81    1.46
   2  -3 -13    4.20    0.79
  -2   3  13    4.11    0.70
   2  -3 -12  185.79   11.22
   2  -3 -12  178.00    8.99
  -2   3  12  159.15    8.76
  -2   3  12  171.46    8.90
   2  -3 -12  168.02   10.30
   2  -3 -12  172.03   11.61
  -2   3  11    0.55    0.44
  -2   3  11    0.25    0.36
   2  -3 -11   -0.30    1.13
   2  -3 -11    0.51    0.94
   2  -3 -11   -0.19    0.63
   2  -3 -11    0.60    0.45
   2  -3 -10  106.78    7.55
   2  -3 -10  112.24    8.07
   2  -3  -9    0.52    1.01
  -2   3   8   13.16    1.43
   2  -3  -7  674.03   35.05
  -2   3   7  687.96   34.31
   2  -3  -6   34.10    2.93
  -2   3   6   30.52    2.49
   2  -3  -5  117.64    7.26
  -2   3   5  123.93    6.94
  -2   3   4   37.33    2.74
   2  -3  -4   39.56    3.04
  -2   3   3   52.57    3.42
   2  -3  -3   48.06    3.48
   2  -3  -2  463.67   22.77
  -2   3   2  430.80   22.59
  -2   3   1    4.80    0.87
   2  -3  -1    4.34    0.84
   2  -3   0   20.28    1.68
   2  -3   1    0.09    0.49
  -2   3  -2   49.72    3.37
   2  -3   2   55.09    3.49
  -2   3  -3  196.76   10.50
  -2   3  -3  171.31   10.04
   2  -3   3  200.64   10.18
   2  -3   4    0.25    0.46
  -2   3  -4    0.37    0.52
  -2   3  -4    0.25    0.69
  -2   3  -5  549.14   29.06
  -2   3  -5  621.45   29.65
  -2   3  -6    3.28    0.78
  -2   3  -7    9.10    1.19
  -2   3  -8    1.39    0.56
   2  -3   9  102.34    6.48
   2  -3  10   45.66    3.58
  -2   3 -10   43.33    2.64
  -2   3 -10   41.05    2.59
   2  -3  11   19.90    1.54
  -2   3 -11   21.64    1.65
  -2   3 -11   21.66    1.63
  -2   3 -11   25.95    1.71
  -2   3 -12  494.07   24.41
  -2   3 -12  497.96   24.46
  -2   3 -12  493.54   24.43
   2  -3  12  472.43   24.33
   2  -3  13    0.75    0.46
  -2   3 -13    1.57    0.61
  -2   3 -13    1.93    0.56
  -2   3 -14   93.15    5.12
  -2   3 -14   84.95    4.97
   2  -3  14   90.86    5.04
   2  -3  15    1.23    0.52
  -2   3 -15    1.16    0.49
  -2   3 -15    0.86    0.49
  -2   3 -16   22.57    1.67
  -2   3 -16   27.94    1.92
   2  -3  16   26.71    1.87
  -2   3 -17  120.57    7.04
   2  -3  17  130.30    7.03
  -2   3 -18    0.05    0.36
   2  -3  18    0.05    0.47
   2  -3  19   92.62    5.20
  -2   3 -19  105.39    5.37
  -2   3 -20    4.21    0.60
  -2   3 -21   44.02    2.43
   2  -2 -22    0.07    0.20
  -2   2  21    2.13    0.38
  -2   2  20   57.53    3.16
   2  -2 -20   55.90    3.18
   2  -2 -19    2.09    0.51
   2  -2 -19    2.46    0.52
  -2   2  19    2.67    0.54
  -2   2  18   27.11    1.90
   2  -2 -18   29.87    2.00
   2  -2 -18   25.33    1.98
   2  -2 -17   29.65    2.05
  -2   2  17   26.73    1.92
   2  -2 -17   24.80    2.04
  -2   2  16    0.42    0.45
   2  -2 -15  157.54    8.44
  -2   2  15  154.14    8.25
  -2   2  14    3.89    0.68
   2  -2 -14    4.50    1.50
   2  -2 -14    5.79    0.96
   2  -2 -13  213.64   12.71
  -2   2  13  196.32   10.38
   2  -2 -13  202.98   10.53
  -2   2  12    2.03    0.52
   2  -2 -12    2.88    0.67
   2  -2 -12    1.99    1.00
   2  -2 -12    3.17    0.90
   2  -2 -11  103.39    5.61
  -2   2  11  100.45    5.53
   2  -2 -11  109.55    7.28
   2  -2 -11   99.52    6.54
   2  -2 -10   61.96    4.64
   2  -2 -10   76.28    5.39
   2  -2  -9    5.60    1.32
   2  -2  -9    5.04    1.01
   2  -2  -8  724.18   34.48
  -2   2   8  647.22   33.26
  -2   2   7   30.99    2.28
  -2   2   6  302.51   15.52
  -2   2   5    1.20    0.51
   2  -2  -5    1.53    0.71
   2  -2  -4  149.24    8.40
   2  -2  -3 1409.58   69.52
   2  -2  -2   33.45    2.44
   2  -2  -1  426.59   21.56
   2  -2   0    7.82    0.97
   2  -2   0    7.25    0.92
   2  -2   1  448.47   22.62
   2  -2   2   57.79    3.60
   2  -2   3   37.47    2.58
   2  -2   4  615.37   30.70
  -2   2  -5   28.93    2.08
  -2   2  -6 2704.70  132.22
  -2   2  -7  362.17   18.47
  -2   2  -8  416.16   21.04
   2  -2   9   66.15    4.56
   2  -2  10    4.20    0.99
   2  -2  11  290.70   14.92
   2  -2  11  295.24   16.14
  -2   2 -11  301.90   14.95
  -2   2 -12    0.37    0.40
   2  -2  12    0.53    0.64
  -2   2 -12   -0.12    0.41
   2  -2  12    0.43    0.40
  -2   2 -13  172.67    9.27
  -2   2 -13  179.32    9.37
   2  -2  13  183.29    9.34
  -2   2 -14   53.84    3.42
   2  -2  14   56.32    3.39
   2  -2  15   32.76    2.20
  -2   2 -15   25.26    1.92
  -2   2 -15   32.43    2.27
  -2   2 -15   32.17    2.19
   2  -2  16  162.01    8.66
  -2   2 -16  169.85    8.76
  -2   2 -16  157.75    8.66
   2  -2  17    5.45    0.84
  -2   2 -17    5.43    0.80
  -2   2 -17    5.00    0.91
  -2   2 -18  117.14    6.89
   2  -2  18  129.73    6.95
   2  -2  19   -0.18    0.38
   2  -2  20    6.67    0.76
  -2   2 -21   22.21    1.30
   2  -2  21   15.77    1.14
   2  -1 -22    0.09    0.18
   2  -1 -21   23.01    1.65
  -2   1  21   24.03    1.48
   2  -1 -20    3.81    0.58
   2  -1 -19  152.17    8.34
   2  -1 -19  176.94    8.54
  -2   1  18   62.36    3.59
   2  -1 -18   64.98    3.76
   2  -1 -18   58.72    3.65
   2  -1 -17   21.72    1.79
  -2   1  17   20.70    1.63
   2  -1 -17   24.55    1.85
   2  -1 -16   21.38    1.83
   2  -1 -16   24.93    1.88
  -2   1  16   18.86    1.59
  -2   1  15    1.11    0.50
   2  -1 -15    1.04    0.75
   2  -1 -14  510.01   24.56
  -2   1  14  472.33   24.33
   2  -1 -13    4.96    1.31
   2  -1 -13    4.63    0.84
  -2   1  13    3.87    0.64
  -2   1  12   55.78    3.37
   2  -1 -12   64.66    4.95
   2  -1 -12   59.34    3.51
   2  -1 -11   48.88    2.83
  -2   1  11   41.69    2.67
   2  -1 -11   41.61    3.22
   2  -1 -11   52.34    4.18
   2  -1 -10   33.61    3.23
   2  -1 -10   36.76    2.81
   2  -1  -9  179.59   10.15
   2  -1  -9  166.77    9.49
   2  -1  -8   30.25    2.01
   2  -1  -8   29.51    2.43
   2  -1  -7  319.21   16.22
   2  -1  -7  311.85   15.85
  -2   1   7  299.32   15.73
   2  -1  -7  333.71   16.68
   2  -1  -6   85.55    5.25
   2  -1  -6   82.32    4.99
   2  -1  -5  213.46   11.28
   2  -1  -4  140.56    7.65
   2  -1  -3   67.68    4.17
   2  -1  -3   69.91    4.10
   2  -1  -2 2147.46  105.11
   2  -1  -1   62.42    3.53
   2  -1  -1   56.54    2.90
   2  -1  -1   59.30    3.52
   2  -1   0  226.09   11.70
   2  -1   1  571.19   28.44
   2  -1   2   32.93    2.28
  -2   1  -2   31.84    2.32
   2  -1   3  444.60   22.68
  -2   1  -3  463.39   22.90
  -2   1  -4   30.81    2.36
  -2   1  -5  580.87   29.36
  -2   1  -7   90.17    4.95
   2  -1   7   88.85    5.03
   2  -1   8  679.81   33.58
  -2   1  -8  678.00   33.59
   2  -1   9   25.60    2.36
   2  -1  10  320.88   17.16
   2  -1  11    0.32    0.64
  -2   1 -12  134.69    7.09
   2  -1  12  136.08    8.29
   2  -1  12  126.57    6.93
   2  -1  12  132.34    6.98
   2  -1  13   61.09    3.72
   2  -1  13   59.28    4.86
   2  -1  13   68.27    3.77
   2  -1  14    5.92    0.85
  -2   1 -14    6.83    0.92
   2  -1  14    6.49    0.84
   2  -1  15  403.02   21.42
   2  -1  15  429.23   21.49
  -2   1 -15  452.47   21.55
  -2   1 -16    0.93    0.56
   2  -1  16    0.97    0.59
  -2   1 -16    0.22    0.59
  -2   1 -17  426.15   20.83
   2  -1  17  424.16   20.79
  -2   1 -17  386.99   20.73
  -2   1 -18   12.87    1.27
  -2   1 -18    9.53    1.10
   2  -1  18   11.04    1.15
  -2   1 -19   10.70    1.10
   2  -1  19   10.17    0.99
   2  -1  20   46.38    2.77
  -2   1 -21    0.40    0.33
   2  -1  21    0.03    0.28
   2  -1  22   53.60    2.82
   2  -1  22   50.82    3.00
   2   0 -21    2.41    0.50
  -2   0  20   27.08    1.76
   2   0 -20   28.11    1.85
   2   0 -20   29.10    2.04
   2   0 -19    2.21    0.56
   2   0 -18   26.52    1.90
   2   0 -18   21.59    1.67
   2   0 -17   88.28    5.11
   2   0 -17   87.48    5.00
  -2   0  16   -0.11    0.41
   2   0 -16    0.08    0.53
   2   0 -16    0.08    0.66
   2   0 -16    0.29    0.55
   2   0 -16    1.12    0.94
   2   0 -15  469.92   23.07
   2   0 -15  476.89   26.41
   2   0 -15  459.54   23.10
   2   0 -15  464.61   23.09
  -2   0  15  438.04   22.83
   2   0 -14   10.98    1.28
   2   0 -14    9.63    1.15
  -2   0  14    7.84    0.93
   2   0 -13   69.28    3.91
  -2   0  13   59.56    3.64
   2   0 -12   30.62    2.11
  -2   0  12   28.28    1.95
   2   0 -11   13.85    1.87
   2   0 -11   13.86    1.26
   2   0 -10  143.47    8.64
   2   0  -9   81.02    4.94
   2   0  -9   91.74    5.68
   2   0  -8  126.51    7.18
   2   0  -8  114.78    6.61
   2   0  -7    4.45    0.75
   2   0  -7    5.74    0.60
   2   0  -7    4.87    0.93
   2   0  -6   30.79    2.33
   2   0  -6   37.81    2.23
   2   0  -6   34.72    2.64
   2   0  -5  726.97   36.35
   2   0  -5  743.78   35.99
   2   0  -5  710.04   36.09
   2   0  -4    5.77    0.94
   2   0  -4    7.04    0.80
   2   0  -4    7.32    0.86
   2   0  -3  116.91    6.30
   2   0  -3  115.05    6.23
   2   0  -2  101.22    5.32
   2   0  -2  112.73    5.73
   2   0  -1   81.86    4.22
   2   0   0    1.75    0.51
   2   0   1    0.87    0.45
  -2   0  -2  984.60   48.46
  -2   0  -3   83.82    4.79
  -2   0  -4  577.58   28.91
   2   0   5   36.75    2.33
   2   0   6    4.02    0.60
   2   0   7 1285.96   63.00
   2   0   8    0.34    0.58
   2   0   8    0.28    0.25
   2   0   9    4.15    0.95
   2   0  10   13.84    1.75
   2   0  11  197.42   11.30
   2   0  12  137.11    8.56
  -2   0 -13   14.19    1.32
   2   0  13   16.23    1.32
   2   0  13   15.96    2.16
   2   0  14  181.18    9.35
  -2   0 -14  178.39    9.41
   2   0  14  165.25   10.77
   2   0  15    0.13    0.50
   2   0  15   -0.20    0.50
   2   0  16   29.78    2.22
   2   0  16   30.04    2.22
  -2   0 -16   32.66    2.29
  -2   0 -17   48.63    3.20
   2   0  17   50.13    3.21
   2   0  17   51.66    3.20
   2   0  18   21.11    1.71
   2   0  18   22.78    1.73
  -2   0 -18   23.05    1.79
  -2   0 -18   19.36    1.73
  -2   0 -19   78.89    4.69
   2   0  19   87.15    4.74
   2   0  19   75.61    4.61
  -2   0 -19   91.90    4.78
  -2   0 -20   -0.05    0.39
   2   0  20    0.26    0.40
  -2   0 -20    1.06    0.47
   2   0  21   83.21    4.51
   2   0  22    0.34    0.26
   2   1 -21   23.80    1.57
   2   1 -20   -0.15    0.42
  -2  -1  19    3.49    0.56
   2   1 -19    3.94    0.67
   2   1 -19    5.10    0.86
   2   1 -18   78.24    4.56
   2   1 -17    0.23    0.57
   2   1 -17    0.29    0.43
   2   1 -16  171.86   12.86
   2   1 -16  189.43   10.15
   2   1 -16  203.98   10.35
   2   1 -15   16.74    1.55
   2   1 -15   16.70    3.05
   2   1 -15   19.58    1.71
   2   1 -14   29.00    2.15
   2   1 -14   28.89    2.21
   2   1 -14   25.12    3.65
   2   1 -13   35.33    4.20
   2   1 -13   36.25    2.52
   2   1 -12   -0.30    0.92
   2   1 -12    0.63    0.68
   2   1 -12    0.39    0.44
   2   1 -11  403.11   20.88
   2   1 -11  355.85   18.28
   2   1 -10   15.64    2.31
   2   1  -9  665.34   34.64
   2   1  -8   72.63    5.31
   2   1  -7   47.39    3.42
   2   1  -7   54.70    4.03
   2   1  -6   41.82    2.46
   2   1  -6   40.29    2.90
   2   1  -6   39.32    2.57
   2   1  -6   48.62    3.45
   2   1  -5   37.45    2.89
   2   1  -5   31.49    2.20
   2   1  -5   36.46    2.18
   2   1  -4  295.49   14.78
   2   1  -4  265.57   14.15
   2   1  -4  286.09   14.14
   2   1  -3   32.70    2.18
   2   1  -3   34.79    2.18
   2   1  -3   34.00    2.17
   2   1  -2 1063.30   53.21
   2   1  -2 1117.73   53.23
   2   1  -2 1073.74   53.12
   2   1  -1 2885.67  141.90
   2   1  -1 2948.48  142.03
   2   1   0  397.59   19.74
   2   1   1  216.03   11.32
  -2  -1  -1  208.76   11.15
   2   1   2   25.51    1.79
  -2  -1  -2   27.49    1.77
  -2  -1  -3  369.75   18.51
   2   1   3  367.92   18.48
   2   1   4   75.40    4.20
  -2  -1  -5   82.17    4.66
   2   1   5   78.04    4.39
  -2  -1  -6 1196.63   56.67
   2   1   6 1146.63   56.59
   2   1   6 1119.08   56.15
   2   1   7    0.29    0.56
  -2  -1  -7   -0.22    0.55
   2   1   7    0.09    0.30
   2   1   8 1539.30   72.15
  -2  -1  -8 1643.94   72.47
   2   1   8 1389.03   71.22
   2   1   9  196.16   10.79
  -2  -1  -9  190.54   11.07
  -2  -1 -10   91.90    6.09
   2   1  10   82.10    5.58
  -2  -1 -11  113.61    7.47
   2   1  11  106.49    6.95
  -2  -1 -12    8.08    1.76
   2   1  12    5.88    1.30
   2   1  13  381.00   18.99
   2   1  13  366.74   20.54
  -2  -1 -14    0.06    0.39
   2   1  14   -0.97    0.50
   2   1  14    0.45    0.73
  -2  -1 -15   14.47    1.36
   2   1  15   16.50    1.41
  -2  -1 -16    0.75    0.49
   2   1  16    1.38    0.55
  -2  -1 -17    0.14    0.51
   2   1  17    0.49    0.51
   2   1  17    0.64    0.51
   2   1  18   87.36    5.13
  -2  -1 -18   92.59    5.14
   2   1  18   90.19    5.13
  -2  -1 -19    1.52    0.59
   2   1  19    2.44    0.63
   2   1  19    1.79    0.62
   2   1  20   84.44    4.39
  -2  -1 -20   81.70    4.30
  -2  -1 -20   68.49    4.30
   2   1  20   70.92    4.26
   2   1  21    5.40    0.71
   2   1  22   28.06    1.75
   2   1  23    0.77    0.22
   2   1  23    0.29    0.41
   2   2 -21    0.48    0.27
   2   2 -20    1.09    0.44
   2   2 -19   11.96    1.21
   2   2 -18   10.26    1.16
   2   2 -18    7.56    0.99
   2   2 -17   36.03    2.45
   2   2 -17   43.24    2.78
   2   2 -17   41.99    2.89
   2   2 -16  103.77    5.71
   2   2 -16  115.90    6.01
   2   2 -16  113.78    5.99
   2   2 -15   16.32    1.79
   2   2 -15   14.65    1.36
   2   2 -15   17.32    1.64
   2   2 -15   17.72    1.48
   2   2 -14    2.67    0.78
   2   2 -14    4.17    1.24
   2   2 -14    4.27    0.72
   2   2 -14    2.29    0.63
   2   2 -14    2.40    1.38
   2   2 -13   20.14    1.78
   2   2 -13   20.37    1.94
   2   2 -13   25.09    1.79
   2   2 -12  228.04   14.03
   2   2 -12  225.22   11.78
   2   2 -12  220.62   11.69
   2   2 -12  232.15   11.76
   2   2 -11    2.90    0.61
   2   2 -11    2.06    0.67
   2   2 -11    3.43    1.31
   2   2 -10  317.15   16.09
   2   2 -10  324.42   18.05
   2   2  -9  293.36   16.46
   2   2  -8   69.82    5.13
   2   2  -7 1080.51   54.23
   2   2  -6   76.03    5.05
   2   2  -5   34.47    2.69
   2   2  -5   31.08    2.11
   2   2  -4  130.43    6.99
   2   2  -4  117.64    6.52
   2   2  -3  461.03   23.30
   2   2  -3  465.41   23.13
   2   2  -2 3455.65  171.58
   2   2  -2 3550.61  171.62
   2   2  -2 3564.93  171.70
   2   2  -1  149.27    7.78
   2   2  -1  154.28    8.03
   2   2  -1  151.21    7.94
   2   2   0 9999.00  485.51
  -2  -2   0 9987.99  485.36
   2   2   1    0.43    0.46
   2   2   2   50.17    3.02
   2   2   3  159.13    8.46
   2   2   3  162.96    8.53
   2   2   3  163.82    8.48
   2   2   4    1.42    0.49
  -2  -2  -4    0.69    0.34
  -2  -2  -5  528.48   26.01
   2   2   5  515.04   25.92
   2   2   6   41.48    2.84
  -2  -2  -6   44.72    2.82
   2   2   6   36.47    2.47
  -2  -2  -7 1576.27   72.72
   2   2   7 1427.14   72.09
   2   2   7 1464.07   72.64
  -2  -2  -8   17.25    1.83
   2   2   8   17.40    1.79
   2   2   8   15.02    1.24
   2   2   9  279.27   15.40
  -2  -2  -9  297.93   15.67
  -2  -2 -10  318.67   17.00
   2   2  10  301.46   16.64
   2   2  11    2.38    0.97
  -2  -2 -11    0.62    0.83
   2   2  12  408.01   23.12
  -2  -2 -12  474.38   24.01
   2   2  13   -0.21    0.93
  -2  -2 -13    0.54    1.08
   2   2  13    0.67    0.44
   2   2  14  356.36   18.43
  -2  -2 -14  419.90   21.45
   2   2  15   22.84    1.78
   2   2  16   37.84    2.59
   2   2  17   29.89    2.20
  -2  -2 -18    0.37    0.50
   2   2  18    0.07    0.54
   2   2  18    0.07    0.52
   2   2  19  194.55   10.08
  -2  -2 -19  187.29    9.92
   2   2  19  193.36   10.04
   2   2  20   31.88    2.10
  -2  -2 -20   28.16    1.92
   2   2  20   27.74    2.00
   2   2  21    5.02    0.70
   2   2  21    4.91    0.63
   2   2  22   42.79    2.51
   2   2  23    1.68    0.33
   2   2  23    1.48    0.59
   2   3 -20   34.80    2.12
   2   3 -19    0.86    0.47
   2   3 -18   67.35    4.02
   2   3 -17    7.49    1.04
   2   3 -17    6.64    0.95
   2   3 -16   17.73    1.65
   2   3 -16   18.36    1.71
   2   3 -16   17.52    1.42
   2   3 -16   16.21    1.37
   2   3 -15   95.14    5.68
   2   3 -15  113.10    6.02
   2   3 -15  107.27    6.05
   2   3 -15  112.64    6.05
   2   3 -15   99.01    5.69
   2   3 -14    3.01    1.37
   2   3 -14    2.29    0.63
   2   3 -14    1.47    0.72
   2   3 -14    2.02    0.58
   2   3 -13  183.00   10.44
   2   3 -13  213.08   10.72
   2   3 -13  211.76   10.73
   2   3 -13  207.08   10.54
   2   3 -12    5.88    0.88
   2   3 -12    5.59    1.54
   2   3 -12    4.67    0.76
   2   3 -12    6.13    1.11
   2   3 -11  253.72   12.55
   2   3 -11  244.57   14.57
   2   3 -11  232.87   12.44
   2   3 -10  126.45    8.36
   2   3 -10  123.60    6.58
   2   3 -10  120.23    6.60
   2   3  -9    1.46    0.86
   2   3  -8  808.86   41.31
   2   3  -7   52.09    3.99
   2   3  -6   53.62    3.88
   2   3  -5    6.93    1.12
   2   3  -4  213.71   11.06
   2   3  -4  207.61   10.81
   2   3  -4  195.81   11.04
   2   3  -3  771.23   36.43
   2   3  -3  691.58   36.35
   2   3  -3  742.06   36.66
   2   3  -2  224.98   12.15
   2   3  -2  233.56   12.01
   2   3  -2  245.62   12.21
   2   3  -1 1575.03   77.41
   2   3  -1 1668.04   77.45
   2   3  -1 1534.50   77.05
   2   3   0   30.00    1.73
   2   3   1   30.73    2.20
   2   3   1   29.56    2.12
   2   3   1   28.99    1.82
   2   3   2  164.62    8.73
   2   3   2  168.82    8.98
   2   3   2  177.06    9.04
   2   3   3   46.23    2.71
   2   3   3   44.11    2.82
  -2  -3  -3   39.24    2.20
   2   3   3   50.92    2.98
   2   3   3   46.16    2.81
  -2  -3  -4  236.93   12.62
   2   3   4  251.53   13.01
   2   3   4  264.81   13.03
   2   3   4  265.63   13.21
   2   3   4  259.20   13.07
   2   3   5    5.29    0.80
  -2  -3  -5    3.76    0.65
   2   3   5    5.38    0.84
   2   3   6  219.88   11.90
   2   3   6  227.03   11.99
  -2  -3  -6  244.12   12.07
  -2  -3  -7  141.41    7.64
   2   3   7  135.06    7.36
   2   3   7  123.67    7.60
   2   3   8    3.91    1.09
  -2  -3  -8    6.27    1.15
  -2  -3  -9  585.64   28.77
   2   3   9  529.33   28.57
   2   3  10    0.65    0.75
  -2  -3 -10    0.71    0.82
   2   3  11  179.18   11.14
  -2  -3 -11  206.16   11.60
   2   3  12    1.01    0.78
   2   3  12    0.56    0.40
  -2  -3 -12    0.24    1.00
   2   3  13  101.87    5.69
  -2  -3 -13  116.61    7.88
   2   3  14  239.74   12.37
  -2  -3 -14  243.36   14.82
  -2  -3 -15   73.81    6.29
   2   3  15   68.12    4.09
  -2  -3 -16    7.37    1.61
   2   3  16    5.81    0.90
  -2  -3 -16    7.18    1.93
   2   3  17    1.23    0.54
  -2  -3 -18  147.84    8.30
   2   3  18  173.65    8.56
   2   3  19    5.16    0.86
  -2  -3 -19    4.31    0.70
   2   3  19    5.44    0.84
   2   3  20   35.00    2.42
   2   3  20   38.13    2.44
   2   3  21  127.44    6.44
   2   3  21  112.88    6.33
   2   3  22   -0.08    0.32
   2   3  22   -0.97    0.79
   2   3  22   -0.32    0.33
   2   3  23   67.20    3.77
   2   3  23   60.78    3.39
   2   4 -20    6.13    0.60
   2   4 -19  143.38    7.45
   2   4 -18    0.93    0.54
   2   4 -17   87.62    5.02
   2   4 -16   73.79    4.17
   2   4 -16   61.99    3.86
   2   4 -16   68.10    4.11
   2   4 -15    3.61    0.73
   2   4 -15    3.12    1.09
   2   4 -15    3.91    0.87
   2   4 -15    3.15    0.62
   2   4 -15    2.57    0.75
   2   4 -14  305.53   15.41
   2   4 -14  291.38   15.12
   2   4 -14  300.27   15.41
   2   4 -14  310.14   15.47
   2   4 -14  288.58   15.19
   2   4 -13   23.71    1.87
   2   4 -13   25.05    1.84
   2   4 -13   25.16    2.07
   2   4 -13   26.87    2.34
   2   4 -12   59.86    3.70
   2   4 -12   62.39    3.91
   2   4 -12   64.38    3.92
   2   4 -12   62.56    3.69
   2   4 -11   89.82    5.25
   2   4 -11   91.81    5.26
   2   4 -11  105.72    5.54
   2   4 -11   97.18    5.42
   2   4 -10    2.79    0.53
   2   4 -10    3.31    0.68
   2   4 -10    4.17    0.67
   2   4 -10    4.30    0.79
   2   4  -9  557.55   27.66
   2   4  -9  545.52   27.65
   2   4  -9  563.77   27.60
   2   4  -8    9.41    1.65
   2   4  -7  362.87   19.47
   2   4  -6   28.88    2.63
   2   4  -5   65.28    4.31
   2   4  -5   62.40    4.04
   2   4  -4    1.72    0.63
   2   4  -3    0.45    0.46
   2   4  -2  492.62   24.92
   2   4  -1   11.27    1.42
   2   4  -1    8.94    1.18
   2   4   0   56.48    3.79
   2   4   1  165.17    9.10
   2   4   2   41.66    2.90
   2   4   2   39.89    2.90
   2   4   3 1066.57   46.28
   2   4   3 1115.13   46.36
   2   4   3 1016.79   45.99
   2   4   3 1072.44   46.28
   2   4   4    1.86    0.62
  -2  -4  -4    1.08    0.33
   2   4   4    0.91    0.70
   2   4   4    1.64    0.65
   2   4   5  729.53   35.63
   2   4   5  686.49   35.55
  -2  -4  -5  717.84   35.19
   2   4   5  704.86   35.51
   2   4   6   41.90    3.13
  -2  -4  -6   47.15    2.98
   2   4   6   39.72    2.95
   2   4   6   41.32    3.11
  -2  -4  -7    2.33    0.73
   2   4   7    2.08    0.65
  -2  -4  -8   67.37    4.36
   2   4   8   57.53    3.92
   2   4   9    1.10    0.81
  -2  -4  -9    0.15    0.73
   2   4   9    1.79    0.61
   2   4  10  458.17   24.27
  -2  -4 -10  460.88   24.31
  -2  -4 -11   19.06    2.43
  -2  -4 -12   82.79    6.30
   2   4  13   73.87    4.27
  -2  -4 -13   79.07    6.10
  -2  -4 -14   65.29    5.41
   2   4  14   54.54    3.41
  -2  -4 -15  147.36   10.36
   2   4  15  153.59    8.18
  -2  -4 -16   -0.32    1.25
   2   4  16    0.07    0.50
  -2  -4 -17   95.88    7.47
  -2  -4 -17   98.86    8.18
   2   4  17  111.91    6.03
   2   4  18    4.40    0.83
   2   4  19   24.73    1.93
   2   4  20   33.32    2.31
   2   4  20   34.79    2.33
   2   4  21    0.81    0.45
   2   4  21    0.75    0.45
   2   4  22   30.54    1.98
   2   4  22   30.94    2.03
   2   4  23    0.07    0.24
   2   4  23    0.14    0.26
   2   4  23   -0.26    0.51
   2   5 -19   -0.03    0.27
   2   5 -18    9.63    0.92
   2   5 -17  107.87    5.82
   2   5 -17  113.38    6.01
   2   5 -16    2.92    0.62
   2   5 -16    1.94    0.66
   2   5 -15  150.04    7.77
   2   5 -15  137.93    7.41
   2   5 -15  139.15    7.56
   2   5 -14   27.09    2.17
   2   5 -14   25.07    1.82
   2   5 -14   24.50    1.92
   2   5 -14   26.11    2.06
   2   5 -13   61.75    3.58
   2   5 -13   58.27    3.64
   2   5 -13   59.47    3.80
   2   5 -13   59.00    3.88
   2   5 -12    5.45    0.76
   2   5 -12    5.57    0.84
   2   5 -12    5.39    0.92
   2   5 -12    4.95    0.90
   2   5 -12    5.92    1.41
   2   5 -12    4.69    0.67
   2   5 -11    8.86    1.11
   2   5 -11    7.32    0.99
   2   5 -11    6.87    0.93
   2   5 -11    6.78    0.84
   2   5 -11    8.25    0.93
   2   5 -11    6.74    1.25
   2   5 -10  354.02   17.83
   2   5 -10  347.38   17.63
   2   5 -10  353.15   17.71
   2   5 -10  372.81   17.93
   2   5 -10  331.28   17.69
   2   5 -10  354.27   17.79
   2   5  -9    1.21    0.55
   2   5  -9    0.78    0.55
   2   5  -9    1.82    0.50
   2   5  -9    0.70    0.50
   2   5  -9    0.70    0.44
   2   5  -9    1.39    0.47
   2   5  -9    0.86    0.37
   2   5  -9    1.05    0.55
   2   5  -8  829.46   40.97
   2   5  -8  840.85   41.10
   2   5  -8  854.88   41.06
   2   5  -8  822.73   41.15
   2   5  -8  839.42   41.16
   2   5  -8  865.80   41.22
   2   5  -8  855.49   41.14
   2   5  -8  774.28   41.04
   2   5  -7  100.30    5.41
   2   5  -7   94.64    5.23
   2   5  -6   46.51    3.35
   2   5  -5  550.86   28.06
   2   5  -4    8.03    1.22
   2   5  -3  277.39   13.90
   2   5  -3  239.47   12.45
   2   5  -3  268.13   13.45
   2   5  -2    4.82    1.20
   2   5  -2    4.17    0.90
   2   5  -1  180.97   10.24
   2   5  -1  193.35   10.58
   2   5   0  309.68   16.10
   2   5   0  293.84   15.87
   2   5   1    8.93    1.32
   2   5   1    5.16    0.42
   2   5   2  253.93   13.64
   2   5   3   27.84    2.41
   2   5   3   30.62    2.53
   2   5   4  405.06   18.41
   2   5   4  372.29   18.30
  -2  -5  -5    1.36    0.50
   2   5   5    0.79    0.68
   2   5   5    1.21    0.69
  -2  -5  -6  188.94   10.14
   2   5   6  200.40   10.50
   2   5   6  178.18   10.39
   2   5   7   35.57    2.90
   2   5   7   39.30    3.03
  -2  -5  -7   39.02    2.94
   2   5   8    9.82    1.44
   2   5   8   10.23    0.79
  -2  -5  -8   10.13    1.44
   2   5   8    8.63    1.28
  -2  -5  -9   92.99    5.86
   2   5   9   88.02    5.63
   2   5   9   78.03    5.28
  -2  -5 -10    0.55    0.73
   2   5  10    0.30    0.66
   2   5  10    0.57    0.55
  -2  -5 -11  213.73   12.84
   2   5  11  223.49   12.46
   2   5  12  246.88   13.24
   2   5  12  224.75   11.74
   2   5  12  229.24   11.77
  -2  -5 -12  235.39   13.69
   2   5  13   -0.05    0.36
   2   5  13    0.19    0.62
  -2  -5 -13    0.75    0.82
   2   5  14  225.95   13.43
   2   5  14  227.00   11.86
  -2  -5 -14  259.08   14.37
  -2  -5 -15    1.73    1.08
  -2  -5 -16   82.09    6.89
   2   5  16   85.82    4.95
  -2  -5 -17   80.83    7.02
   2   5  17  107.15    5.73
   2   5  18    3.77    0.81
   2   5  19  134.87    7.32
   2   5  20    1.09    0.56
   2   5  21   75.07    4.24
   2   5  22    7.96    0.80
   2   5  23    0.66    0.29
   2   6 -18   47.61    2.70
   2   6 -17    5.33    0.65
   2   6 -17    6.43    0.74
   2   6 -16   41.88    2.67
   2   6 -16   41.96    2.57
   2   6 -15    3.89    0.69
   2   6 -15    3.65    0.75
   2   6 -14   90.37    4.92
   2   6 -14   75.80    4.55
   2   6 -14   85.96    4.74
   2   6 -13  125.30    7.04
   2   6 -13  134.20    7.19
   2   6 -13  131.45    6.93
   2   6 -13  124.66    6.81
   2   6 -13  133.03    7.05
   2   6 -12    2.99    0.60
   2   6 -12    3.20    0.74
   2   6 -12    1.70    1.19
   2   6 -12    3.72    0.85
   2   6 -12    4.17    0.71
   2   6 -11   62.16    3.72
   2   6 -11   56.52    3.45
   2   6 -11   62.44    3.63
   2   6 -11   65.28    3.88
   2   6 -11   60.99    3.85
   2   6 -11   62.99    3.80
   2   6 -11   59.78    3.63
   2   6 -10    4.43    0.65
   2   6 -10    3.76    0.79
   2   6 -10    3.40    0.74
   2   6 -10    4.53    0.73
   2   6 -10    6.27    0.94
   2   6 -10    4.45    1.10
   2   6 -10    4.31    0.70
   2   6  -9  123.11    7.36
   2   6  -9  131.02    7.38
   2   6  -9  142.11    7.31
   2   6  -9  142.28    7.40
   2   6  -9  140.39    7.38
   2   6  -9  152.11    7.56
   2   6  -9  134.64    7.39
   2   6  -9  140.44    7.42
   2   6  -9  140.43    7.57
   2   6  -8   80.92    4.50
   2   6  -8   82.52    4.65
   2   6  -8   81.65    4.65
   2   6  -8   79.70    4.57
   2   6  -8   79.31    4.44
   2   6  -8   76.51    4.48
   2   6  -8   81.01    4.52
   2   6  -8   82.99    4.55
   2   6  -8   76.00    4.49
   2   6  -8   75.14    4.56
   2   6  -7   28.73    2.15
   2   6  -7   32.72    2.03
   2   6  -7   30.27    2.09
   2   6  -7   28.86    2.03
   2   6  -7   28.30    2.12
   2   6  -7   29.98    2.06
   2   6  -7   30.18    2.03
   2   6  -7   30.65    2.05
   2   6  -6  365.88   18.60
   2   6  -6  369.44   18.72
   2   6  -6  390.97   18.61
   2   6  -6  377.29   18.66
   2   6  -6  365.12   18.63
   2   6  -6  360.45   18.61
   2   6  -6  380.66   18.77
   2   6  -6  349.28   19.51
   2   6  -5    6.21    1.23
   2   6  -4   96.99    6.26
   2   6  -3   -0.15    0.62
   2   6  -3    0.18    0.88
   2   6  -2   57.14    4.37
   2   6  -2   51.13    3.96
   2   6  -1  107.83    6.43
   2   6  -1   89.17    4.92
   2   6  -1   96.34    6.06
   2   6   0    5.99    0.68
   2   6   0    7.72    1.49
   2   6   0    8.76    1.41
   2   6   1  869.50   43.96
   2   6   2    8.74    0.88
   2   6   2    9.84    0.87
   2   6   3  176.49    9.01
   2   6   3  159.34    8.83
   2   6   4   94.34    5.25
   2   6   4  105.55    6.38
   2   6   5    8.95    0.84
   2   6   5   11.44    1.57
   2   6   5   10.50    1.57
   2   6   6  562.50   29.22
  -2  -6  -6  578.13   29.86
   2   6   6  689.20   30.54
   2   6   6  665.68   30.59
  -2  -6  -7   53.65    3.94
   2   6   7   65.93    4.30
   2   6   7   58.32    4.26
  -2  -6  -8   12.96    1.66
   2   6   8   12.24    1.68
   2   6   8   16.49    1.86
   2   6   9   14.59    1.84
  -2  -6  -9   14.71    1.93
   2   6   9   18.08    1.98
   2   6  10   94.15    6.12
   2   6  10   84.40    5.92
   2   6  11  206.64   11.85
   2   6  11  217.46   10.69
  -2  -6 -11  227.58   12.47
   2   6  11  194.39   10.67
   2   6  12    1.55    0.52
  -2  -6 -12    0.44    0.80
   2   6  12    0.69    0.85
   2   6  12    2.42    0.54
   2   6  13  214.93   12.82
   2   6  13  215.88   11.54
   2   6  13  231.18   11.59
  -2  -6 -13  242.41   13.60
   2   6  14    0.50    0.50
   2   6  14    0.45    0.48
   2   6  15   89.62    5.33
   2   6  15  103.22    5.47
   2   6  16   65.13    3.89
  -2  -6 -17    0.27    0.75
   2   6  18   85.99    4.99
   2   6  19    0.67    0.55
   2   6  20   70.70    4.09
   2   6  20   68.72    4.00
   2   6  21   12.70    1.10
   2   6  21   11.43    1.10
   2   6  22   55.92    3.20
   2   6  22   58.55    3.25
   2   6  23   31.65    1.94
   2   6  23   34.68    1.91
   2   7 -17   39.06    2.29
   2   7 -16   26.76    1.79
   2   7 -16   29.84    1.90
   2   7 -15   13.58    1.21
   2   7 -15   11.53    1.11
   2   7 -14   87.74    5.03
   2   7 -14   88.95    4.95
   2   7 -13    0.18    0.40
   2   7 -13   -0.43    0.67
   2   7 -13    0.50    0.55
   2   7 -13    0.05    0.38
   2   7 -12  171.13    9.34
   2   7 -12  185.33    9.60
   2   7 -12  182.34    9.47
   2   7 -12  180.65    9.35
   2   7 -11    0.25    0.37
   2   7 -11   -0.24    0.47
   2   7 -11    0.34    0.55
   2   7 -11    0.31    0.43
   2   7 -11    0.24    0.53
   2   7 -10   28.75    2.01
   2   7 -10   28.86    2.23
   2   7 -10   28.23    2.07
   2   7 -10   30.43    2.10
   2   7  -9   32.23    2.34
   2   7  -9   33.14    2.17
   2   7  -9   30.19    2.17
   2   7  -9   30.05    2.26
   2   7  -9   28.51    2.18
   2   7  -9   31.67    2.20
   2   7  -8    0.58    0.46
   2   7  -8    1.87    0.59
   2   7  -8    1.85    0.58
   2   7  -8    0.67    0.51
   2   7  -8    0.80    0.61
   2   7  -8    1.61    0.64
   2   7  -8    1.02    0.71
   2   7  -7  359.12   18.04
   2   7  -7  367.87   18.18
   2   7  -7  370.81   18.02
   2   7  -7  331.63   18.07
   2   7  -7  338.95   18.04
   2   7  -7  363.15   18.03
   2   7  -7  369.71   18.19
   2   7  -6    0.13    0.40
   2   7  -6    0.11    0.41
   2   7  -6    0.07    0.58
   2   7  -6   -0.07    0.53
   2   7  -6   -0.28    0.46
   2   7  -6    0.24    0.42
   2   7  -6   -0.17    0.44
   2   7  -6    0.34    0.65
   2   7  -5  217.10   11.35
   2   7  -5  221.25   11.18
   2   7  -5  224.85   11.19
   2   7  -5  212.30   11.23
   2   7  -5  215.51   11.20
   2   7  -5  227.40   11.37
   2   7  -5  214.35   12.51
   2   7  -5  206.42   11.15
   2   7  -4   26.16    1.81
   2   7  -4   22.65    1.68
   2   7  -4   22.71    1.82
   2   7  -4   24.03    2.63
   2   7  -4   22.37    1.68
   2   7  -4   23.97    1.70
   2   7  -3   82.32    4.57
   2   7  -3   79.54    4.61
   2   7  -3   91.46    5.98
   2   7  -3   83.67    4.60
   2   7  -3   81.78    4.53
   2   7  -2    2.73    1.09
   2   7  -2    2.90    0.98
   2   7  -1   18.83    2.43
   2   7  -1   14.60    2.04
   2   7   0 1798.23   84.32
   2   7   0 1599.61   83.87
   2   7   1   26.86    2.82
   2   7   2  455.50   24.11
   2   7   3  164.65    9.83
   2   7   4   53.94    4.25
   2   7   4   55.24    4.23
   2   7   5  486.38   25.27
   2   7   5  477.19   25.20
   2   7   6    0.81    0.82
   2   7   6   -0.17    0.85
   2   7   7  425.16   21.60
   2   7   7  387.71   21.57
   2   7   8   38.55    2.48
   2   7   8   41.70    3.57
   2   7   8   42.00    3.43
   2   7   9  113.28    6.06
   2   7   9  113.87    7.31
   2   7   9  116.42    7.20
   2   7   9  107.51    6.37
   2   7  10  247.17   14.73
   2   7  10  272.98   13.44
   2   7  10  265.23   13.55
   2   7  10  276.43   13.92
   2   7  10  240.84   14.59
   2   7  11   15.59    1.30
   2   7  11    9.85    1.71
   2   7  11   13.21    1.87
   2   7  11   13.43    1.55
   2   7  11   14.24    1.19
   2   7  12  240.77   12.05
   2   7  12  223.92   12.39
   2   7  12  231.52   11.94
   2   7  13    3.23    0.69
   2   7  13    4.20    0.69
   2   7  13    3.64    1.09
   2   7  14   42.22    2.71
   2   7  14   38.36    3.15
   2   7  14   41.14    2.74
   2   7  15   20.12    1.68
   2   7  15   19.97    1.67
   2   7  15   22.34    2.19
   2   7  16   45.05    3.10
   2   7  16   51.50    3.69
   2   7  16   52.21    3.18
   2   7  17   54.00    3.20
   2   7  17   44.95    3.01
   2   7  17   47.58    3.58
   2   7  18    1.06    0.95
   2   7  19   39.91    3.02
   2   7  20    0.05    0.41
   2   7  20   -0.08    0.74
   2   7  21    5.62    0.66
   2   7  21    5.61    0.74
   2   7  21    5.73    0.98
   2   7  22    2.51    0.43
   2   7  22    4.39    0.74
   2   7  22    3.98    0.57
   2   7  23    1.90    0.40
   2   7  23    1.35    0.42
   2   7  23    1.27    0.31
   2   8 -16    7.85    0.72
   2   8 -15   59.60    3.34
   2   8 -15   56.91    3.26
   2   8 -14    0.05    0.45
   2   8 -14   -0.16    0.42
   2   8 -13   62.68    3.73
   2   8 -13   66.37    3.85
   2   8 -12   -0.20    0.40
   2   8 -12   -0.50    0.54
   2   8 -12   -0.36    0.44
   2   8 -11  109.19    6.02
   2   8 -11  106.80    6.09
   2   8 -11  118.58    6.35
   2   8 -11  117.25    6.15
   2   8 -10   10.60    1.05
   2   8 -10    9.78    1.19
   2   8 -10    8.10    1.01
   2   8 -10   10.48    1.08
   2   8  -9    2.21    0.66
   2   8  -9   -0.27    2.24
   2   8  -9    0.40    0.50
   2   8  -9    0.62    0.58
   2   8  -9    1.56    0.57
   2   8  -9    1.11    0.56
   2   8  -8  264.73   12.83
   2   8  -8  221.72   12.91
   2   8  -8  223.81   12.78
   2   8  -8  262.79   12.87
   2   8  -8  253.01   13.00
   2   8  -8  253.22   12.84
   2   8  -8  260.14   12.84
   2   8  -7    5.49    0.95
   2   8  -7    4.81    1.48
   2   8  -7    7.27    1.09
   2   8  -7    8.14    1.02
   2   8  -7    6.54    1.01
   2   8  -7    8.19    0.95
   2   8  -7    8.01    0.98
   2   8  -7    7.38    0.97
   2   8  -6  308.43   15.67
   2   8  -6  311.12   15.67
   2   8  -6  308.82   15.68
   2   8  -6  303.10   15.78
   2   8  -6  293.96   15.77
   2   8  -6  317.66   15.85
   2   8  -6  310.71   15.74
   2   8  -6  309.08   15.82
   2   8  -5   39.86    2.51
   2   8  -5   37.79    2.66
   2   8  -5   36.08    3.55
   2   8  -5   34.25    2.56
   2   8  -5   38.76    2.51
   2   8  -5   38.65    2.57
   2   8  -5   34.03    2.38
   2   8  -5   34.13    2.32
   2   8  -4   41.62    2.65
   2   8  -4   38.24    2.57
   2   8  -4   40.65    2.67
   2   8  -4   39.74    2.78
   2   8  -4   37.93    3.77
   2   8  -4   40.93    2.79
   2   8  -4   40.02    2.59
   2   8  -4   39.22    2.54
   2   8  -4   38.89    2.53
   2   8  -3   72.97    5.60
   2   8  -3   69.04    4.08
   2   8  -3   74.84    4.40
   2   8  -3   71.89    4.07
   2   8  -3   67.43    4.17
   2   8  -3   71.37    4.17
   2   8  -3   75.07    4.16
   2   8  -2    5.88    0.78
   2   8  -2    6.97    0.80
   2   8  -2    4.50    0.76
   2   8  -2    6.10    0.73
   2   8  -2    6.44    0.90
   2   8  -2    4.84    1.51
   2   8  -2    5.74    0.81
   2   8  -2    5.68    1.00
   2   8  -2    4.87    0.93
   2   8  -1  183.15    9.50
   2   8  -1  172.96    9.13
   2   8  -1  192.58    9.56
   2   8  -1  184.67   11.17
   2   8  -1  183.27    9.34
   2   8  -1  180.37    9.24
   2   8  -1  166.09    9.50
   2   8  -1  174.41    9.28
   2   8  -1  168.77   10.81
   2   8  -1  177.88    9.17
   2   8  -1  170.11    9.19
   2   8   0    5.08    1.42
   2   8   0    5.08    0.72
   2   8   0    5.47    0.94
   2   8   0    4.76    0.74
   2   8   0    4.21    0.83
   2   8   0    3.47    0.71
   2   8   0    4.70    0.96
   2   8   0    5.09    0.75
   2   8   0    3.47    0.91
   2   8   0    4.52    0.63
   2   8   0    6.79    1.68
   2   8   0    3.53    0.59
   2   8   1  158.22    8.50
   2   8   1  168.18   10.26
   2   8   1  167.66    8.75
   2   8   1  173.00   10.37
   2   8   1  160.45    8.68
   2   8   1  179.12    9.01
   2   8   1  181.65    8.98
   2   8   1  156.26    8.49
   2   8   1  164.55    8.59
   2   8   2  307.00   15.44
   2   8   2  317.57   17.07
   2   8   2  294.10   15.37
   2   8   3    0.05    0.34
   2   8   3   -0.06    1.29
   2   8   3    0.59    0.36
   2   8   3    0.20    0.80
   2   8   3    1.03    0.49
   2   8   4  129.35    6.88
   2   8   4  117.77    6.53
   2   8   4  128.75    8.10
   2   8   4  138.07    8.20
   2   8   4  117.44    6.71
   2   8   4  125.22    6.56
   2   8   5    6.29    0.79
   2   8   5    8.24    1.62
   2   8   5    7.13    1.10
   2   8   5    6.05    0.98
   2   8   5    5.95    1.38
   2   8   5    5.09    0.71
   2   8   6  183.48    9.46
   2   8   6  181.74   10.93
   2   8   6  185.55    9.86
   2   8   6  188.01   10.92
   2   8   6  170.32    9.37
   2   8   6  190.94    9.84
   2   8   6  185.94    9.68
   2   8   7    0.74    0.41
   2   8   7    0.78    0.44
   2   8   7    0.56    0.88
   2   8   7    0.80    0.88
   2   8   7    0.50    0.79
   2   8   7    0.17    0.65
   2   8   7    0.14    0.61
   2   8   8   21.44    1.88
   2   8   8   24.97    2.65
   2   8   8   24.91    2.75
   2   8   8   23.14    2.03
   2   8   8   21.36    1.60
   2   8   9  177.08    8.88
   2   8   9  158.67    8.63
   2   8   9  161.15   10.11
   2   8   9  174.28    9.23
   2   8   9  164.69   10.35
   2   8   9  172.94    8.77
   2   8  10   26.27    1.85
   2   8  10   26.39    2.76
   2   8  10   21.99    2.66
   2   8  10   22.20    1.69
   2   8  10   23.15    1.65
   2   8  10   24.10    2.11
   2   8  11  308.17   19.37
   2   8  11  379.28   18.17
   2   8  11  367.02   18.49
   2   8  11  352.14   17.96
   2   8  12    0.68    0.57
   2   8  12    0.20    0.81
   2   8  12    0.11    0.41
   2   8  13   25.64    1.96
   2   8  13   24.68    1.83
   2   8  13   24.97    2.32
   2   8  14   66.01    3.99
   2   8  14   65.35    3.88
   2   8  14   65.78    4.38
   2   8  15    0.14    0.55
   2   8  15    0.57    0.52
   2   8  15    0.43    0.85
   2   8  16   44.86    3.34
  -2  -8 -16   53.88    5.26
   2   8  16   59.69    3.49
   2   8  16   62.36    3.45
   2   8  16   54.57    3.83
   2   8  17    3.08    0.68
   2   8  17    4.44    0.75
   2   8  17    1.73    0.95
   2   8  18  104.84    5.77
   2   8  18  103.56    6.15
   2   8  19   10.70    0.99
   2   8  19   10.74    1.38
   2   8  19   12.61    1.15
   2   8  20    5.99    0.72
   2   8  20    7.53    1.11
   2   8  21   13.47    1.06
   2   8  21   15.89    1.41
   2   8  22   -0.57    0.47
   2   8  22   -0.11    0.39
   2   9 -15    1.41    0.35
   2   9 -14   97.09    5.19
   2   9 -13    0.72    0.44
   2   9 -12   28.89    1.94
   2   9 -12   31.99    2.17
   2   9 -11   12.04    1.13
   2   9 -11   12.04    1.04
   2   9 -11   13.23    1.30
   2   9 -11   10.95    1.30
   2   9 -10    3.05    0.79
   2   9 -10    3.89    0.72
   2   9 -10    3.13    0.77
   2   9 -10    4.21    0.86
   2   9 -10    3.49    0.65
   2   9  -9   36.56    2.45
   2   9  -9   38.40    2.53
   2   9  -9   38.05    2.66
   2   9  -9   33.83    2.44
   2   9  -9   38.19    2.49
   2   9  -8    9.13    1.17
   2   9  -8   11.86    1.25
   2   9  -8   13.74    1.26
   2   9  -8   13.04    1.25
   2   9  -8   12.42    1.38
   2   9  -8   13.38    1.32
   2   9  -8    9.63    2.13
   2   9  -7  374.60   18.16
   2   9  -7  392.55   18.18
   2   9  -7  327.93   18.32
   2   9  -7  379.98   18.38
   2   9  -7  360.69   18.19
   2   9  -7  332.18   18.17
   2   9  -7  373.50   18.18
   2   9  -7  322.47   18.12
   2   9  -6    9.26    1.24
   2   9  -6    9.88    1.27
   2   9  -6    7.98    2.76
   2   9  -6   10.36    1.15
   2   9  -6   10.94    1.31
   2   9  -6   10.28    1.18
   2   9  -6   11.02    1.23
   2   9  -5    4.86    0.89
   2   9  -5    4.68    0.97
   2   9  -5    4.77    0.85
   2   9  -5    7.01    2.52
   2   9  -5    3.54    1.22
   2   9  -5    5.51    0.87
   2   9  -5    5.56    0.99
   2   9  -5    4.90    0.82
   2   9  -5    5.31    1.01
   2   9  -5    4.91    0.74
   2   9  -4   96.05    5.38
   2   9  -4   93.57    5.61
   2   9  -4   83.50    6.95
   2   9  -4   95.27    5.59
   2   9  -4   96.43    5.66
   2   9  -4   98.23    5.52
   2   9  -4  104.52    5.50
   2   9  -4   93.96    5.36
   2   9  -4   99.25    5.96
   2   9  -3    5.44    1.06
   2   9  -3    4.97    0.86
   2   9  -3    6.01    0.85
   2   9  -3    6.72    0.85
   2   9  -3    5.95    0.86
   2   9  -3    5.21    0.89
   2   9  -3    4.26    0.98
   2   9  -3    4.06    1.49
   2   9  -3    6.15    2.04
   2   9  -2  105.67    8.15
   2   9  -2  121.03    6.48
   2   9  -2  123.18    6.59
   2   9  -2  126.85    6.93
   2   9  -2  118.82    6.54
   2   9  -2  121.07    6.68
   2   9  -2  110.36    6.87
   2   9  -2  124.84    6.53
   2   9  -1    2.22    1.95
   2   9  -1    0.57    0.71
   2   9  -1    0.56    0.45
   2   9  -1    0.55    0.47
   2   9  -1    1.87    0.82
   2   9  -1    1.02    0.48
   2   9  -1    1.15    0.79
   2   9  -1    1.17    0.49
   2   9  -1    0.25    0.90
   2   9   0   26.28    3.25
   2   9   0   30.26    2.02
   2   9   0   29.15    2.85
   2   9   0   31.22    2.02
   2   9   0   31.94    2.45
   2   9   0   32.40    2.14
   2   9   0   28.27    2.06
   2   9   0   27.19    2.31
   2   9   0   26.00    2.33
   2   9   0   30.37    2.34
   2   9   1   63.19    5.26
   2   9   1   68.65    5.38
   2   9   1   61.79    3.84
   2   9   1   60.73    3.52
   2   9   1   59.21    3.60
   2   9   1   58.53    3.96
   2   9   1   64.69    4.04
   2   9   1   61.65    3.96
   2   9   1   58.29    3.93
   2   9   1   60.29    3.53
   2   9   2    0.17    0.77
   2   9   2    1.50    0.46
   2   9   2    1.45    0.48
   2   9   2    1.80    0.48
   2   9   2    2.13    1.12
   2   9   2    2.45    1.79
   2   9   2    0.76    1.97
   2   9   2    1.69    0.65
   2   9   2    2.45    0.80
   2   9   3  121.74    6.64
   2   9   3  133.72    8.47
   2   9   3  120.00    6.84
   2   9   3  123.76    6.56
   2   9   3  127.70    7.09
   2   9   3  126.34    6.67
   2   9   3  117.18    6.94
   2   9   3  123.08    6.53
   2   9   3  125.23    7.08
   2   9   4    0.09    0.74
   2   9   4    0.17    0.38
   2   9   4    0.23    0.39
   2   9   4    0.51    0.36
   2   9   4   -0.22    0.91
   2   9   4    0.04    0.33
   2   9   4    0.23    0.55
   2   9   4    0.09    0.70
   2   9   4   -0.47    0.80
   2   9   5  153.18    8.45
   2   9   5  163.57    8.46
   2   9   5  150.64    8.26
   2   9   5  169.89    8.79
   2   9   5  169.72    8.93
   2   9   5  166.23   10.08
   2   9   5  169.48   10.36
   2   9   5  165.95    8.91
   2   9   6   27.38    1.90
   2   9   6   23.39    2.20
   2   9   6   24.92    2.87
   2   9   6   25.03    2.13
   2   9   6   25.38    1.83
   2   9   6   23.51    2.98
   2   9   6   24.00    2.18
   2   9   7   26.73    2.35
   2   9   7   26.21    1.92
   2   9   7   28.63    2.03
   2   9   7   30.76    2.29
   2   9   7   29.21    3.23
   2   9   7   28.93    2.34
   2   9   7   22.36    2.79
   2   9   8  257.64   12.77
   2   9   8  238.39   12.36
   2   9   8  233.34   12.68
   2   9   8  234.13   14.10
   2   9   8  235.83   12.26
   2   9   8  248.48   12.59
   2   9   8  216.23   13.70
   2   9   9    3.36    0.65
   2   9   9    3.90    0.92
   2   9   9    3.86    1.00
   2   9   9    5.76    1.15
   2   9   9    4.95    1.35
   2   9  10   26.54    1.92
   2   9  10   24.33    1.64
   2   9  10   20.78    2.15
   2   9  10   19.70    1.95
   2   9  10   21.69    2.84
   2   9  10   24.80    2.19
   2   9  10   25.70    1.79
   2   9  11    2.26    0.52
   2   9  11    1.61    0.61
   2   9  11    1.95    0.80
   2   9  11    1.16    0.87
   2   9  11    2.79    0.51
   2   9  11    2.16    0.93
   2   9  12   11.56    1.23
   2   9  12   10.74    1.33
   2   9  12    9.64    0.98
   2   9  12   10.34    1.48
   2   9  13   52.36    3.20
   2   9  13   46.37    2.92
   2   9  13   47.23    3.46
   2   9  13   46.88    3.22
   2   9  14    1.84    0.65
   2   9  14    0.61    0.67
   2   9  14    1.57    0.50
   2   9  14    0.92    0.91
   2   9  15  111.72    6.81
   2   9  15  133.82    6.92
   2   9  15  128.87    6.70
   2   9  15  122.10    7.16
   2   9  16    1.66    0.62
   2   9  16    0.46    0.61
   2   9  16    1.19    0.52
   2   9  16    0.86    0.80
   2   9  17   49.63    3.05
   2   9  17   51.55    2.95
   2   9  17   50.53    3.34
   2   9  18   14.84    1.25
   2   9  18   14.21    1.56
   2   9  19    0.50    0.43
   2   9  19    0.73    0.63
   2   9  20   40.38    2.65
   2   9  20   41.81    2.38
   2   9  20   34.32    2.51
   2   9  21    1.17    0.45
   2   9  21    0.27    0.53
   2   9  21    0.57    0.32
   2   9  22    8.71    0.86
   2  10 -13   19.08    1.34
   2  10 -12   14.37    1.15
   2  10 -12   11.01    0.92
   2  10 -11    9.54    1.02
   2  10 -11    8.18    0.90
   2  10 -11    8.47    0.84
   2  10 -10   28.18    1.93
   2  10 -10   29.04    1.91
   2  10 -10   30.90    2.16
   2  10 -10   28.70    1.99
   2  10  -9   14.03    1.24
   2  10  -9   15.15    1.43
   2  10  -9   15.70    1.35
   2  10  -9   14.35    1.28
   2  10  -8  237.86   11.86
   2  10  -8  233.37   11.84
   2  10  -8  245.36   12.11
   2  10  -8  203.23   11.90
   2  10  -8  232.71   11.90
   2  10  -7   13.85    1.39
   2  10  -7   11.49    1.31
   2  10  -7   16.27    1.40
   2  10  -7   15.76    1.98
   2  10  -7   15.32    1.53
   2  10  -6   69.03    4.82
   2  10  -6   94.15    4.94
   2  10  -6   95.49    5.17
   2  10  -6   94.06    4.90
   2  10  -6   82.35    5.07
   2  10  -6   75.35    4.89
   2  10  -5  132.30    7.44
   2  10  -5  148.95    7.37
   2  10  -5  140.44    7.54
   2  10  -5  123.75    7.11
   2  10  -5  119.76    7.30
   2  10  -5  132.49    7.46
   2  10  -5  144.57    7.27
   2  10  -4    0.95    0.74
   2  10  -4    0.96    0.73
   2  10  -4    0.71    0.69
   2  10  -4    0.25    0.51
   2  10  -4    0.26    0.93
   2  10  -4   -0.08    1.50
   2  10  -4    2.72    2.23
   2  10  -4    0.37    0.48
   2  10  -4    0.41    0.58
   2  10  -3  228.21   11.45
   2  10  -3  208.21   11.55
   2  10  -3  207.27   11.77
   2  10  -3  225.39   11.38
   2  10  -3  211.56   11.36
   2  10  -3  225.53   11.36
   2  10  -3  216.30   11.65
   2  10  -3  236.45   11.76
   2  10  -3  227.23   11.66
   2  10  -3  171.69   13.13
   2  10  -2    2.06    0.63
   2  10  -2    1.19    1.93
   2  10  -2    2.66    0.94
   2  10  -2    2.95    0.73
   2  10  -2    4.70    1.57
   2  10  -2    2.33    0.62
   2  10  -2    1.88    2.46
   2  10  -2    3.50    0.70
   2  10  -2    2.22    0.87
   2  10  -1   65.40    3.72
   2  10  -1   55.29    4.47
   2  10  -1   57.42    4.39
   2  10  -1   66.21    4.17
   2  10  -1   60.20    5.44
   2  10  -1   65.28    3.80
   2  10  -1   59.80    3.66
   2  10   0   23.29    3.15
   2  10   0   22.58    1.74
   2  10   0   24.09    1.76
   2  10   0   26.59    2.25
   2  10   0   24.40    2.84
   2  10   0   20.98    2.95
   2  10   0   20.31    2.05
   2  10   0   25.52    1.88
   2  10   1   20.64    1.56
   2  10   1   19.57    1.57
   2  10   1   21.90    2.02
   2  10   1   20.47    2.87
   2  10   1   18.79    1.90
   2  10   1   16.89    1.83
   2  10   1   22.09    1.69
   2  10   2  192.61   10.57
   2  10   2  203.31   10.11
   2  10   2  198.90   10.61
   2  10   2  203.39   10.11
   2  10   2  221.03   10.72
   2  10   3    7.98    1.27
   2  10   3    5.01    0.80
   2  10   3    5.82    0.77
   2  10   3    7.79    0.85
   2  10   3    6.53    1.19
   2  10   3    7.72    1.77
   2  10   3    7.30    1.09
   2  10   4   61.27    3.57
   2  10   4   57.93    5.27
   2  10   4   60.54    3.59
   2  10   4   57.71    5.12
   2  10   4   63.32    4.17
   2  10   4   61.93    4.11
   2  10   4   61.89    3.72
   2  10   4   66.81    3.77
   2  10   5   23.23    3.00
   2  10   5   25.24    1.90
   2  10   5   23.89    1.72
   2  10   5   21.70    2.86
   2  10   5   27.98    2.33
   2  10   5   30.80    2.32
   2  10   5   25.31    2.22
   2  10   5   22.89    1.84
   2  10   6    7.32    1.30
   2  10   6    8.81    1.08
   2  10   6   12.04    1.54
   2  10   6   11.20    1.41
   2  10   6   13.00    2.20
   2  10   6    9.17    1.06
   2  10   7  323.80   16.54
   2  10   7  315.04   16.11
   2  10   7  328.80   16.42
   2  10   7  303.91   16.43
   2  10   7  293.35   18.01
   2  10   7  318.05   16.07
   2  10   8   89.29    5.24
   2  10   8   80.57    6.65
   2  10   8   83.55    5.32
   2  10   8   85.74    4.92
   2  10   8   89.81    5.41
   2  10   8   86.37    4.97
   2  10   9   14.86    1.43
   2  10   9   16.17    1.41
   2  10   9   14.79    1.77
   2  10   9   17.64    1.72
   2  10   9   17.04    1.79
   2  10   9   14.21    2.30
   2  10  10   42.79    4.27
   2  10  10   41.14    3.04
   2  10  10   41.79    3.15
   2  10  10   48.47    2.84
   2  10  10   39.48    3.21
   2  10  11   21.14    1.71
   2  10  11   17.51    1.89
   2  10  11   18.30    1.92
   2  10  11   17.30    1.76
   2  10  11   18.83    1.51
   2  10  12   19.86    1.64
   2  10  12   18.60    1.85
   2  10  12   16.52    1.90
   2  10  12   15.65    1.27
   2  10  12   15.88    1.69
   2  10  13   -0.07    0.54
   2  10  13    1.01    0.92
   2  10  13    0.05    0.38
   2  10  13   -0.32    0.70
   2  10  13    0.86    0.81
   2  10  14  176.56    8.52
   2  10  14  171.07    8.82
   2  10  14  144.96    8.10
   2  10  14  146.51    8.62
   2  10  14  155.49    8.48
   2  10  15    2.62    0.75
   2  10  15    3.51    0.96
   2  10  15    2.79    0.82
   2  10  15    2.83    0.55
   2  10  15    2.28    1.06
   2  10  16   26.23    2.21
   2  10  16   22.79    2.02
   2  10  16   21.27    1.82
   2  10  16   24.48    1.87
   2  10  16   22.87    1.63
   2  10  17   10.99    1.05
   2  10  17    8.58    1.27
   2  10  17    8.11    0.99
   2  10  17    8.45    0.87
   2  10  17    7.53    1.11
   2  10  18    1.98    0.45
   2  10  18    1.75    0.72
   2  10  19   19.72    1.29
   2  10  19   16.08    1.45
   2  10  20    0.62    0.27
   2  11 -12    1.76    0.36
   2  11 -11    9.14    0.78
   2  11 -11   11.79    0.95
   2  11 -10    2.08    0.38
   2  11 -10    2.67    0.44
   2  11 -10    1.21    0.51
   2  11  -9   34.47    2.20
   2  11  -9   37.59    2.24
   2  11  -9   35.42    2.40
   2  11  -8   38.66    2.45
   2  11  -8   40.26    2.69
   2  11  -7    1.82    0.73
   2  11  -7    2.66    0.61
   2  11  -6  212.64   10.30
   2  11  -6  218.76   10.61
   2  11  -6  216.31   10.35
   2  11  -5   13.51    1.35
   2  11  -5   12.54    1.43
   2  11  -5   17.24    1.64
   2  11  -5   15.65    1.35
   2  11  -4   90.92    5.87
   2  11  -4  104.48    6.11
   2  11  -4  119.10    6.23
   2  11  -4  119.78    5.91
   2  11  -4  102.52    5.80
   2  11  -3   18.70    1.91
   2  11  -3   25.00    2.18
   2  11  -3   26.53    1.91
   2  11  -3   25.82    1.87
   2  11  -3   26.52    2.19
   2  11  -3   26.31    1.89
   2  11  -2   14.93    1.31
   2  11  -2   10.75    1.42
   2  11  -2   13.63    1.26
   2  11  -2   12.64    1.53
   2  11  -2   12.25    1.49
   2  11  -2   14.56    1.31
   2  11  -1   35.86    2.81
   2  11  -1   38.30    2.57
   2  11  -1   44.16    2.67
   2  11  -1   34.90    4.03
   2  11  -1   40.55    2.67
   2  11  -1   44.52    3.12
   2  11   0    0.61    0.55
   2  11   0    0.77    0.50
   2  11   0    0.46    0.46
   2  11   0    1.09    0.86
   2  11   0    1.14    0.98
   2  11   1   91.06    5.22
   2  11   1   83.55    4.67
   2  11   1   78.35    4.64
   2  11   1   79.14    6.64
   2  11   1   82.35    4.78
   2  11   2   -0.29    0.93
   2  11   2   -0.34    0.62
   2  11   2    0.17    0.41
   2  11   2    0.22    0.42
   2  11   2    0.09    0.71
   2  11   2    0.80    0.86
   2  11   2   -0.09    0.83
   2  11   3   83.68    4.50
   2  11   3   74.70    4.94
   2  11   3   92.97    5.12
   2  11   3   80.07    4.49
   2  11   3   66.35    4.78
   2  11   4   69.04    4.16
   2  11   4   71.99    4.07
   2  11   4   69.15    4.06
   2  11   4   74.36    4.64
   2  11   4   66.35    4.48
   2  11   4   78.05    4.28
   2  11   5   15.15    1.34
   2  11   5   12.57    1.13
   2  11   5   15.33    1.72
   2  11   5   13.16    2.37
   2  11   5   10.63    1.50
   2  11   5   14.11    1.37
   2  11   6  157.66    8.24
   2  11   6  156.12    7.90
   2  11   6  122.03    9.59
   2  11   6  133.79    8.11
   2  11   6  146.17    7.86
   2  11   6  144.14    8.26
   2  11   7   17.71    1.54
   2  11   7   18.87    1.89
   2  11   7   15.40    2.57
   2  11   7   15.42    1.88
   2  11   7   16.82    1.81
   2  11   7   19.48    1.57
   2  11   8  169.95    8.52
   2  11   8  159.15    8.73
   2  11   8  164.70    8.87
   2  11   8  160.68    8.42
   2  11   8  133.78   10.22
   2  11   8  141.53    8.69
   2  11   9    1.13    0.57
   2  11   9    0.40    0.93
   2  11   9    1.69    0.62
   2  11   9    0.36    0.84
   2  11   9    0.27    0.73
   2  11   9    2.04    0.87
   2  11  10   46.94    2.93
   2  11  10   41.95    3.06
   2  11  10   42.71    3.21
   2  11  10   46.47    2.83
   2  11  10   37.16    3.05
  -2 -11 -10   38.85    4.10
   2  11  11   15.21    1.80
   2  11  11   14.11    1.63
   2  11  11   16.33    1.69
   2  11  11   17.81    1.41
   2  11  12    0.38    0.88
   2  11  12   -0.16    0.78
   2  11  12    0.09    0.74
   2  11  12    0.05    0.40
   2  11  13  159.42    9.02
   2  11  13  179.44    8.83
   2  11  13  170.82    8.90
   2  11  13  145.98    8.85
   2  11  14    1.65    0.92
   2  11  14    2.23    0.65
   2  11  14    1.54    0.76
   2  11  14    0.92    0.80
   2  11  15   26.42    1.88
   2  11  15   20.83    2.04
   2  11  15   24.01    1.86
   2  11  15   20.64    1.88
   2  11  16    9.08    1.05
   2  11  16    8.78    1.26
   2  11  16   10.03    1.04
   2  11  16    8.84    1.10
   2  11  17    1.89    0.77
   2  11  17    2.17    0.56
   2  11  18    8.49    1.06
   2  11  19   -0.04    0.44
   2  12  -9   10.12    0.79
   2  12  -9   10.90    0.84
   2  12  -9   11.28    0.95
   2  12  -8    5.42    0.60
   2  12  -8    5.07    0.72
   2  12  -7   21.11    1.63
   2  12  -7   20.76    1.45
   2  12  -7   21.31    1.47
   2  12  -6    6.00    0.74
   2  12  -6    6.77    0.90
   2  12  -6    5.35    0.71
   2  12  -5   13.18    1.13
   2  12  -5   12.01    1.32
   2  12  -4    1.41    0.54
   2  12  -4    1.48    0.63
   2  12  -4    2.51    0.72
   2  12  -4    1.91    0.55
   2  12  -3    6.78    0.82
   2  12  -3    7.58    0.89
   2  12  -3    7.19    1.08
   2  12  -3    8.11    0.88
   2  12  -3    5.08    0.96
   2  12  -2   91.31    4.89
   2  12  -2   92.41    4.92
   2  12  -2   87.69    5.22
   2  12  -2   85.36    5.16
   2  12  -2   81.22    4.85
   2  12  -1    0.06    0.59
   2  12  -1    0.37    0.43
   2  12  -1    0.33    0.47
   2  12  -1   -0.35    0.46
   2  12  -1    0.08    0.66
   2  12  -1   -0.50    0.72
   2  12   0   77.05    4.66
   2  12   0   81.30    4.31
   2  12   0   77.18    4.28
   2  12   0   62.22    4.35
   2  12   0   76.08    4.34
   2  12   1    0.91    0.81
   2  12   1    0.79    0.43
   2  12   1    0.87    0.47
   2  12   1    1.33    0.51
   2  12   2    3.49    0.72
   2  12   2    2.19    0.55
   2  12   2    2.86    0.93
   2  12   2    3.13    0.63
   2  12   3    7.24    0.85
   2  12   3    7.45    0.85
   2  12   3    8.14    1.27
   2  12   4    0.74    0.87
   2  12   4    0.98    0.44
   2  12   4   -0.07    0.51
   2  12   4   -0.68    0.79
   2  12   4    0.52    0.58
   2  12   5   63.29    4.16
   2  12   5   65.13    3.69
   2  12   6   34.57    2.36
   2  12   6   27.78    2.47
   2  12   6   33.43    2.69
   2  12   7  121.43    6.02
   2  12   7  119.51    6.33
   2  12   7  108.49    5.95
   2  12   7  107.18    6.26
   2  12   8    0.43    0.54
   2  12   8    0.64    0.50
   2  12   8    0.86    0.82
   2  12   8    1.58    0.81
   2  12   8    0.38    0.71
   2  12   9    9.00    0.96
   2  12   9    7.60    0.98
   2  12   9    5.21    1.17
   2  12   9    7.25    1.20
   2  12   9    6.29    1.10
   2  12  10   36.38    2.44
   2  12  10   38.07    2.68
   2  12  10   37.18    2.35
   2  12  10   27.65    2.45
   2  12  10   35.15    2.69
   2  12  11    1.21    0.59
   2  12  11    1.65    0.86
   2  12  11    1.54    0.49
   2  12  11    1.84    0.84
   2  12  12   15.63    1.23
   2  12  12   15.76    1.57
   2  12  12   14.08    1.57
   2  12  13    1.85    0.73
   2  12  13    2.81    0.88
   2  12  14   16.31    1.50
   2  12  14   17.62    1.67
   2  12  14   19.04    1.52
   2  12  15   14.63    1.44
   2  12  15   13.90    1.29
   2  12  16    0.32    0.41
   2  12  16   -0.83    0.61
   2  12  17   20.09    1.48
   2  12  17   16.96    1.23
   2  12  18    0.38    0.37
   2  13  -7   -0.19    0.24
   2  13  -6   20.17    1.32
   2  13  -5    0.03    0.31
   2  13  -4    5.90    0.67
   2  13  -4    6.12    0.67
   2  13  -3   11.88    1.00
   2  13  -3   11.77    1.02
   2  13  -2    3.32    0.58
   2  13  -2    5.53    0.68
   2  13  -2    4.82    0.66
   2  13  -2    3.49    0.73
   2  13  -1  100.59    6.18
   2  13  -1  111.87    5.98
   2  13  -1  123.19    6.06
   2  13  -1  114.84    6.04
   2  13   0    2.55    0.56
   2  13   0    2.66    0.77
   2  13   0    2.15    0.51
   2  13   0    2.41    0.57
   2  13   1    8.88    0.89
   2  13   1    8.67    1.16
   2  13   1    8.88    0.96
   2  13   1    8.62    0.85
   2  13   2    6.09    0.83
   2  13   2    6.83    1.07
   2  13   2    7.23    0.79
   2  13   3    5.78    1.00
   2  13   3    4.19    0.62
   2  13   4   45.32    3.12
   2  13   4   43.24    2.67
   2  13   4   49.39    2.91
   2  13   5    0.74    0.53
   2  13   5   -0.08    0.72
   2  13   6   40.35    2.59
   2  13   7    5.58    0.80
   2  13   7    4.35    0.85
   2  13   8    8.49    1.21
   2  13   8   11.11    1.03
   2  13   9   46.27    3.29
   2  13   9   55.71    3.44
   2  13   9   57.34    3.20
   2  13  10    0.23    0.39
   2  13  10    0.80    0.66
   2  13  10   -0.49    0.65
   2  13  11   91.84    5.03
   2  13  11   80.00    4.93
   2  13  11   89.22    4.72
   2  13  12    4.17    0.82
   2  13  12    5.32    0.89
   2  13  12    6.20    0.62
   2  13  13   20.30    1.58
   2  13  13   18.75    1.55
   2  13  14    6.42    0.82
   2  13  14    6.31    0.83
   2  13  15    0.24    0.38
   2  13  15    1.31    0.44
   2  14  -4   30.73    1.75
   2  14  -3    0.66    0.29
   2  14  -2   41.77    2.35
   2  14  -1    0.03    0.25
   2  14  -1    0.09    0.28
   2  14   0   34.74    1.90
   2  14   0   31.91    1.90
   2  14   1    6.98    0.67
   2  14   1    5.99    0.82
   2  14   1    6.86    0.72
   2  14   2    3.12    0.65
   2  14   2    3.01    0.45
   2  14   2    2.73    0.51
   2  14   3   29.57    1.78
   2  14   3   29.49    2.08
   2  14   4    0.05    0.55
   2  14   5   50.03    3.31
   2  14   5   59.38    3.22
   2  14   6    9.85    1.17
   2  14   6   12.71    1.05
   2  14   7    2.06    0.49
   2  14   8   27.57    1.80
   2  14   9    1.78    0.63
   2  14   9    1.16    0.42
   2  14  10   30.06    2.09
   2  14  10   31.07    1.88
   2  14  11    0.26    0.44
   2  14  11   -0.21    0.25
   2  14  12    1.85    0.51
   2  14  13    6.14    0.70
   2  15   2   20.70    1.26
   2  15   3    0.02    0.21
   2  15   4    7.04    0.70
   2  15   5    3.05    0.51
   2  15   5    4.31    0.48
   2  15   6    0.48    0.36
   2  15   6    0.22    0.24
   2  15   7    9.66    0.91
   2  15   7   11.45    0.82
   2  15   8    1.94    0.31
   2  15  10    1.06    0.35
  -3  13   5    8.55    0.65
  -3  13   4    8.22    0.66
  -3  13   3    0.56    0.25
  -3  13   1    0.23    0.20
  -3  12  11    5.97    0.55
  -3  12  10   24.00    1.38
  -3  12  10   19.51    1.42
  -3  12   9    1.07    0.30
  -3  12   9    0.59    0.23
  -3  12   9    0.12    0.38
  -3  12   8   56.97    3.03
  -3  12   8   60.41    3.04
  -3  12   7    0.18    0.31
   3 -12  -6   11.84    0.99
  -3  12   6   12.71    0.98
   3 -12  -5   27.80    1.82
  -3  12   5   29.33    1.82
  -3  12   4    1.95    0.45
   3 -12  -3   86.11    4.79
  -3  12   3   92.01    4.79
   3 -12  -2    0.50    0.33
  -3  12   1   57.76    3.17
   3 -12  -1   62.56    3.40
   3 -12   0    3.32    0.52
  -3  12   0    3.50    0.53
  -3  12   0    3.40    0.45
  -3  12  -1   15.96    1.09
  -3  12  -1   15.41    1.14
  -3  12  -2   76.17    4.05
  -3  12  -2   77.58    4.07
  -3  12  -3    0.11    0.21
  -3  12  -3    0.10    0.26
  -3  12  -4   73.85    3.88
  -3  12  -5    1.23    0.28
  -3  12  -6   11.76    0.78
  -3  11  14    8.71    0.69
  -3  11  13    0.39    0.28
  -3  11  13    0.10    0.40
  -3  11  12   18.01    1.40
  -3  11  11   39.77    2.31
  -3  11  11   36.14    2.43
  -3  11  10    1.58    0.45
  -3  11  10    0.98    0.60
  -3  11   9   52.83    2.95
  -3  11   9   52.09    3.13
   3 -11  -9   45.08    2.85
  -3  11   9   51.49    2.83
  -3  11   8    1.24    0.44
  -3  11   8    0.46    0.63
  -3  11   8    1.53    0.44
   3 -11  -8    1.05    0.41
  -3  11   7   17.36    1.59
  -3  11   7   19.99    1.44
  -3  11   7   20.67    1.45
  -3  11   6   14.91    1.16
  -3  11   6   12.66    1.29
  -3  11   6   14.11    1.17
  -3  11   5    5.93    0.69
  -3  11   5    5.60    0.75
  -3  11   5    4.92    0.84
  -3  11   4   96.59    5.26
  -3  11   3    0.06    0.31
  -3  11   3   -0.05    0.44
  -3  11   2  107.95    5.49
  -3  11   2   94.99    5.27
  -3  11   1    9.61    0.89
  -3  11   0    5.09    0.67
  -3  11   0    5.94    0.74
  -3  11  -1   73.12    4.08
  -3  11  -1   72.91    4.03
  -3  11  -2    1.03    0.42
  -3  11  -2    1.86    0.47
  -3  11  -3   17.12    1.26
  -3  11  -3   19.09    1.36
   3 -11   3   19.41    1.40
  -3  11  -3   19.90    1.38
  -3  11  -4    6.64    0.73
  -3  11  -4    6.92    0.67
   3 -11   4    5.77    0.68
  -3  11  -4    6.08    0.65
  -3  11  -5   66.70    3.62
  -3  11  -5   64.62    3.55
  -3  11  -6   40.15    2.37
  -3  11  -6   41.20    2.33
  -3  11  -7    1.92    0.37
  -3  11  -8    9.76    0.75
  -3  11  -8   10.39    0.78
  -3  11  -9    3.46    0.37
  -3  11  -9    3.06    0.36
  -3  10  16    0.10    0.27
  -3  10  15   44.55    2.32
  -3  10  15   34.74    2.41
  -3  10  14    4.71    0.60
  -3  10  13    4.18    0.60
  -3  10  12    9.98    0.94
  -3  10  12    7.80    1.07
  -3  10  11    0.78    0.66
   3 -10 -10  161.84    8.84
  -3  10  10  194.43    9.06
  -3  10  10  181.66    9.23
  -3  10  10  165.73    8.80
  -3  10   9   18.47    1.43
   3 -10  -9   14.67    1.25
  -3  10   9   18.42    1.66
  -3  10   9   15.21    1.23
  -3  10   8   13.29    1.20
  -3  10   8   12.82    1.44
  -3  10   8   11.91    1.09
  -3  10   7   34.27    2.28
  -3  10   7   35.77    2.26
  -3  10   7   32.24    2.50
  -3  10   6    0.86    0.45
  -3  10   6    0.11    0.43
  -3  10   6    0.98    0.72
  -3  10   5   52.14    3.11
  -3  10   5   59.03    3.23
  -3  10   4    1.13    0.44
  -3  10   4    1.10    0.51
  -3  10   4    0.73    0.68
  -3  10   3   25.43    1.69
  -3  10   3   19.84    1.89
  -3  10   3   25.97    1.83
  -3  10   3   24.01    1.63
  -3  10   2   18.88    1.44
  -3  10   2   22.10    1.52
  -3  10   2   17.72    1.71
  -3  10   1   18.08    1.39
  -3  10   0  168.84    8.71
  -3  10   0  163.17    8.61
  -3  10  -1    2.50    0.58
  -3  10  -1    1.57    0.46
  -3  10  -1    1.43    0.53
  -3  10  -2   76.93    4.26
  -3  10  -2   76.93    4.34
  -3  10  -2   77.58    4.33
  -3  10  -3    5.10    0.72
  -3  10  -3    4.08    0.63
  -3  10  -3    4.16    0.66
  -3  10  -4    5.29    0.73
  -3  10  -4    4.17    0.66
  -3  10  -4    4.58    0.67
  -3  10  -5   32.03    2.03
  -3  10  -5   31.51    1.98
  -3  10  -5   31.64    2.05
   3 -10   5   28.16    1.97
  -3  10  -6    4.84    0.68
  -3  10  -6    5.52    0.72
  -3  10  -7  118.65    6.25
  -3  10  -8    0.39    0.40
  -3  10  -8    0.62    0.36
  -3  10  -9   60.11    3.37
  -3  10  -9   62.45    3.39
  -3  10 -10   35.07    2.01
  -3  10 -10   34.25    2.04
  -3  10 -11    2.33    0.35
  -3   9  17    0.23    0.31
  -3   9  17    0.04    0.19
  -3   9  16   15.52    1.07
  -3   9  16   14.38    1.25
  -3   9  16   14.41    1.04
  -3   9  15   12.11    1.03
  -3   9  15   12.81    0.99
  -3   9  14    0.13    0.42
  -3   9  14    0.23    0.33
  -3   9  13   92.79    4.82
  -3   9  13   81.38    4.66
  -3   9  12    2.08    0.58
  -3   9  12    2.44    0.52
  -3   9  11   52.61    3.07
  -3   9  11   45.97    2.89
   3  -9 -10    0.28    0.32
  -3   9  10    0.45    0.42
  -3   9  10    0.08    0.33
  -3   9   9   39.11    2.37
  -3   9   9   35.14    2.34
  -3   9   8   91.38    5.02
  -3   9   8   90.94    4.89
  -3   9   8   83.03    4.83
  -3   9   7    0.81    0.58
  -3   9   7    1.17    0.49
  -3   9   7    0.48    0.40
   3  -9  -7    1.95    1.16
  -3   9   6  124.53    6.08
  -3   9   6  114.29    6.05
   3  -9  -6  110.29    8.55
  -3   9   6  101.45    7.71
  -3   9   6   99.20    5.84
  -3   9   5    4.94    0.74
  -3   9   5    5.37    1.04
   3  -9  -5    7.11    1.78
  -3   9   5    4.89    0.78
  -3   9   5    4.92    1.87
  -3   9   5    5.04    1.47
   3  -9  -4    9.89    2.12
  -3   9   4    9.31    1.01
  -3   9   4   11.01    1.11
  -3   9   4   10.66    1.35
  -3   9   4    8.18    1.82
  -3   9   4   12.94    2.37
  -3   9   3   19.25    1.49
  -3   9   3   19.07    1.44
  -3   9   3   18.77    3.02
   3  -9  -3   22.72    3.15
  -3   9   3   19.37    1.80
  -3   9   3   21.64    2.91
  -3   9   3   20.27    1.61
  -3   9   2   12.18    1.10
  -3   9   2   15.79    1.33
  -3   9   2   10.84    1.08
   3  -9  -2   14.99    2.57
  -3   9   2   11.96    1.40
  -3   9   2   18.17    2.85
  -3   9   1  149.64    8.26
  -3   9   1  160.87    8.05
  -3   9   1  152.13   10.66
  -3   9   1  148.34    7.93
  -3   9   0   -0.30    0.82
  -3   9   0    0.16    0.47
  -3   9   0    0.25    0.97
  -3   9  -1  128.83    9.89
  -3   9  -1  147.31    7.77
  -3   9  -1  146.83    7.71
  -3   9  -1  143.65    9.70
  -3   9  -1  151.83    7.84
  -3   9  -2    1.91    0.55
  -3   9  -2    1.87    0.51
  -3   9  -2    1.93    1.00
  -3   9  -2    2.64    0.61
  -3   9  -2    1.14    1.15
  -3   9  -3   10.78    1.04
  -3   9  -3    8.54    0.97
  -3   9  -3   10.51    1.06
  -3   9  -4   47.47    3.00
  -3   9  -4   51.27    3.05
  -3   9  -4   51.68    3.07
  -3   9  -5    2.78    0.56
  -3   9  -5    2.96    0.63
  -3   9  -5    3.69    0.67
   3  -9   6   29.20    2.05
  -3   9  -6   31.70    2.07
  -3   9  -6   36.06    2.22
  -3   9  -7    0.38    0.47
  -3   9  -8   20.31    1.55
  -3   9  -8   21.84    1.58
  -3   9  -9   52.48    3.08
  -3   9  -9   51.53    3.06
  -3   9 -10    1.11    0.42
  -3   9 -10    0.57    0.44
  -3   9 -11   67.03    3.77
  -3   9 -11   71.28    3.85
  -3   9 -11   77.18    3.94
  -3   9 -13   55.40    2.98
  -3   8  18    0.86    0.40
  -3   8  17   24.84    1.64
  -3   8  17   31.81    1.77
  -3   8  16   12.92    1.08
  -3   8  16   14.91    1.13
  -3   8  15    2.22    0.53
  -3   8  15    3.09    0.58
  -3   8  14   55.84    3.35
  -3   8  14   57.93    3.38
  -3   8  13    0.81    0.55
  -3   8  13   -0.17    0.48
  -3   8  12   82.92    4.56
  -3   8  12   75.19    4.47
  -3   8  11   17.86    1.54
  -3   8  11   17.63    1.48
   3  -8 -10   36.54    4.18
  -3   8  10   37.50    2.40
   3  -8 -10   26.99    3.82
   3  -8 -10   31.02    2.16
  -3   8  10   33.76    2.29
  -3   8   9   67.01    3.85
   3  -8  -9   62.37    5.92
  -3   8   9   73.08    4.01
   3  -8  -8   -0.33    1.07
  -3   8   8    0.71    0.49
  -3   8   8    0.90    0.81
   3  -8  -8    2.45    1.18
  -3   8   8    1.40    0.50
  -3   8   7  225.14   11.43
   3  -8  -7  195.79   13.51
  -3   8   7  191.07   12.98
   3  -8  -7  226.98   14.16
  -3   8   7  226.54   11.33
  -3   8   6   53.67    3.48
  -3   8   6   62.20    3.51
  -3   8   6   58.82    5.02
   3  -8  -6   59.39    5.57
  -3   8   5   10.96    1.13
   3  -8  -5   12.41    2.39
  -3   8   5   10.78    1.94
  -3   8   5   12.57    1.16
  -3   8   4   58.38    3.62
  -3   8   4   64.03    3.64
   3  -8  -4   66.58    5.85
  -3   8   4   55.17    5.06
   3  -8  -4   61.87    3.58
  -3   8   3    3.50    0.64
  -3   8   3    5.02    0.76
   3  -8  -3    6.11    1.59
  -3   8   3    3.31    1.43
  -3   8   3    4.72    1.40
  -3   8   2   87.86    7.10
   3  -8  -2   85.11    6.69
  -3   8   2   76.47    4.48
  -3   8   2   84.97    6.41
  -3   8   2   76.03    4.76
  -3   8   2   86.27    4.64
  -3   8   1    0.10    0.34
  -3   8   1    0.06    0.45
   3  -8  -1    0.85    0.88
  -3   8   1    0.15    0.65
  -3   8   1   -0.32    1.14
  -3   8   0  164.26   11.12
  -3   8   0  160.35    8.44
   3  -8   0  176.63   10.84
  -3   8  -1    9.28    2.10
  -3   8  -1    8.50    0.95
  -3   8  -1   11.94    1.11
  -3   8  -1   12.03    2.06
  -3   8  -2   -0.12    0.41
  -3   8  -2    0.27    0.42
  -3   8  -2   -0.31    1.00
  -3   8  -2    0.47    0.77
  -3   8  -3   34.82    3.78
  -3   8  -3   47.62    4.63
  -3   8  -3   43.57    2.68
  -3   8  -3   41.73    2.66
  -3   8  -4   -0.11    0.40
  -3   8  -4    0.35    0.47
  -3   8  -4    0.06    0.45
  -3   8  -5   51.40    2.98
  -3   8  -5   48.10    4.34
  -3   8  -5   44.20    3.07
  -3   8  -5   50.02    3.03
  -3   8  -6    0.61    0.51
  -3   8  -6    0.92    0.42
  -3   8  -6    1.89    0.60
  -3   8  -6    1.30    0.78
  -3   8  -7  134.21    7.64
  -3   8  -7  156.22    7.83
  -3   8  -7  155.23    7.85
  -3   8  -8   32.63    2.32
  -3   8  -8   36.49    2.34
  -3   8  -8   34.54    2.25
  -3   8  -9    1.98    0.60
  -3   8  -9    1.78    0.56
  -3   8  -9    2.22    0.58
  -3   8 -10   86.40    4.70
  -3   8 -10   79.39    4.60
  -3   8 -10   85.32    4.65
  -3   8 -11    0.78    0.40
  -3   8 -11    0.32    0.42
  -3   8 -12   52.06    3.03
  -3   8 -12   55.68    3.11
  -3   8 -13    3.86    0.59
  -3   8 -13    4.14    0.58
  -3   8 -14   20.68    1.40
  -3   8 -14   24.23    1.46
  -3   8 -15   30.90    1.74
  -3   7  19    1.54    0.30
   3  -7 -19    0.59    0.24
  -3   7  18   26.58    1.69
  -3   7  17   12.98    0.99
  -3   7  16    4.80    0.64
  -3   7  15  142.07    7.49
  -3   7  14    2.81    0.67
  -3   7  14    3.17    0.72
  -3   7  13   50.54    3.22
  -3   7  13   54.12    3.29
  -3   7  12   34.93    2.55
  -3   7  12   40.61    2.62
   3  -7 -12   43.79    4.61
   3  -7 -11    4.48    1.51
  -3   7  11    8.27    0.99
   3  -7 -11    6.71    1.83
   3  -7 -11    3.82    1.63
  -3   7  11    5.76    0.93
  -3   7  10   71.75    3.96
   3  -7 -10   62.87    5.91
   3  -7 -10   61.33    5.81
   3  -7 -10   57.68    6.00
  -3   7  10   67.55    3.95
   3  -7 -10   59.61    3.69
  -3   7   9    5.57    0.88
   3  -7  -9    4.17    1.61
   3  -7  -9    4.46    1.60
  -3   7   9    5.88    0.73
  -3   7   8  734.57   38.78
  -3   7   8  745.35   36.96
   3  -7  -8  792.18   40.04
  -3   7   7    0.66    0.53
   3  -7  -7    0.29    1.13
   3  -7  -7    0.93    1.01
  -3   7   7    1.77    1.12
  -3   7   6   44.40    2.79
   3  -7  -6   42.74    4.31
   3  -7  -6   38.95    2.62
   3  -7  -6   46.58    4.59
  -3   7   6   41.98    4.00
  -3   7   6   45.19    2.73
   3  -7  -5   25.33    3.05
  -3   7   5   24.89    1.83
  -3   7   5   26.09    1.83
   3  -7  -5   25.06    3.25
   3  -7  -5   23.20    1.74
  -3   7   5   27.70    3.04
  -3   7   4    0.99    0.47
   3  -7  -4    0.90    0.41
  -3   7   4    1.82    0.53
   3  -7  -4    0.73    0.91
   3  -7  -4    0.86    0.99
  -3   7   4    0.23    0.78
  -3   7   3  158.89    8.58
  -3   7   3  175.74    8.68
  -3   7   3  172.57   10.44
   3  -7  -3  155.34    8.51
   3  -7  -3  184.94   11.11
  -3   7   2    0.42    0.37
  -3   7   2    0.29    0.41
   3  -7  -2   -0.19    0.32
   3  -7  -2    0.27    0.74
  -3   7   2   -0.23    0.82
  -3   7   1  216.38   12.64
   3  -7  -1  183.99   11.84
  -3   7   1  192.52    9.76
  -3   7   1  179.28    9.63
  -3   7   0    2.14    0.45
   3  -7   0    2.24    1.12
  -3   7   0    0.60    0.98
  -3   7  -1  136.13    9.88
  -3   7  -1  145.16    7.69
  -3   7  -1  144.09    9.33
   3  -7   1  151.86    9.49
  -3   7  -2  328.16   18.09
  -3   7  -2  306.45   16.33
  -3   7  -2  328.19   18.78
   3  -7   2  341.11   18.08
  -3   7  -2  327.13   16.26
  -3   7  -3    8.61    0.91
  -3   7  -3    6.53    0.94
  -3   7  -3    9.02    2.11
  -3   7  -3    5.45    1.59
  -3   7  -4  479.18   25.74
  -3   7  -4  463.94   23.05
  -3   7  -4  449.98   23.17
  -3   7  -4  483.16   24.98
  -3   7  -5    2.15    1.02
  -3   7  -5    2.83    0.59
  -3   7  -6  287.85   14.28
  -3   7  -6  257.94   15.87
  -3   7  -7   23.18    1.73
  -3   7  -7   25.23    1.72
  -3   7  -8   13.16    1.32
  -3   7  -8   16.78    1.35
  -3   7  -8   16.08    1.36
  -3   7  -9   30.79    2.16
  -3   7  -9   31.30    2.13
  -3   7  -9   30.50    2.14
  -3   7 -10    7.98    0.95
  -3   7 -10    8.38    0.96
  -3   7 -11  115.04    6.09
  -3   7 -11  110.22    6.11
  -3   7 -12   32.21    2.21
  -3   7 -12   36.79    2.35
  -3   7 -12   39.01    2.41
  -3   7 -13   19.68    1.52
  -3   7 -13   20.62    1.55
  -3   7 -14   92.20    4.99
  -3   7 -14   91.88    4.98
  -3   7 -15    1.11    0.37
  -3   7 -15    1.45    0.42
  -3   7 -16   17.49    1.12
  -3   7 -16   14.03    0.98
  -3   6  20    0.04    0.19
   3  -6 -19    9.69    0.87
  -3   6  19   14.80    0.98
  -3   6  18   20.86    1.47
  -3   6  17    0.92    0.48
  -3   6  16  101.47    5.82
  -3   6  16  123.39    6.07
  -3   6  15    0.16    0.44
  -3   6  15    0.81    0.57
  -3   6  14   61.05    3.64
   3  -6 -13   -0.30    0.97
   3  -6 -13    0.34    0.79
  -3   6  13    0.77    0.47
   3  -6 -12    6.93    1.94
  -3   6  12    4.12    0.74
   3  -6 -12    4.21    1.51
   3  -6 -12    4.95    1.55
  -3   6  11   32.23    2.29
   3  -6 -11   35.63    4.02
   3  -6 -11   30.48    3.97
  -3   6  11   33.13    2.34
   3  -6 -11   26.34    3.80
   3  -6 -10    5.57    1.58
  -3   6  10    5.38    0.83
   3  -6 -10    4.55    0.62
   3  -6 -10    3.20    1.53
   3  -6 -10    6.21    1.77
  -3   6   9   68.74    4.15
   3  -6  -9   69.03    6.05
   3  -6  -9   78.18    6.39
  -3   6   8    1.19    0.44
   3  -6  -8    0.88    1.10
  -3   6   8    0.40    0.51
  -3   6   8    0.59    0.76
   3  -6  -8    1.47    1.18
   3  -6  -7  478.46   25.03
  -3   6   7  440.65   22.37
  -3   6   7  461.05   24.12
   3  -6  -6   68.59    5.56
  -3   6   6   63.54    3.55
   3  -6  -6   65.34    5.34
   3  -6  -6   56.32    3.47
  -3   6   6   57.23    4.74
  -3   6   5    1.17    0.43
  -3   6   5    1.95    0.54
   3  -6  -5    1.22    0.98
  -3   6   5    1.85    1.04
   3  -6  -5    2.37    1.19
   3  -6  -5    1.61    0.45
  -3   6   4  160.47    8.32
  -3   6   4  162.19    8.30
   3  -6  -4  171.77   10.44
   3  -6  -4  148.28    8.16
  -3   6   4  156.03    9.80
   3  -6  -4  173.58   10.24
   3  -6  -3    0.84    0.35
  -3   6   3    0.59    0.40
   3  -6  -3    2.94    1.19
  -3   6   3    0.81    0.44
   3  -6  -3    2.31    0.92
  -3   6   3    1.03    0.95
  -3   6   2  113.25    6.31
  -3   6   2  123.06    6.38
   3  -6  -2  130.16    8.31
   3  -6  -2  114.82    6.23
  -3   6   2  129.30    8.02
  -3   6   1   27.97    1.87
  -3   6   1   27.43    1.93
   3  -6   0   86.80    6.53
  -3   6   0   97.86    7.17
  -3   6  -1  206.46   10.80
  -3   6  -1  208.26   10.91
  -3   6  -1  236.67   13.32
  -3   6  -1  210.88   12.44
   3  -6   1  248.51   12.85
  -3   6  -2    2.60    0.52
  -3   6  -2    2.77    1.15
  -3   6  -2    4.14    1.42
  -3   6  -2    1.93    0.51
  -3   6  -3  117.46    7.99
  -3   6  -3  127.03    6.59
  -3   6  -3  124.85    8.59
  -3   6  -3  119.93    6.58
   3  -6   3  133.18    8.00
  -3   6  -4   11.12    1.07
  -3   6  -4   12.94    1.10
  -3   6  -4   11.29    2.10
  -3   6  -4    8.64    1.69
  -3   6  -5  127.45    6.73
  -3   6  -5  122.92    6.67
  -3   6  -5  124.24    8.11
  -3   6  -5  133.77    8.88
  -3   6  -6  261.15   13.23
  -3   6  -6  264.12   14.72
  -3   6  -6  254.96   13.12
  -3   6  -7    0.86    0.52
  -3   6  -7    0.53    0.34
  -3   6  -7    0.38    0.69
  -3   6  -8  150.69    8.04
  -3   6 -10    0.65    0.50
  -3   6 -11   91.64    5.23
  -3   6 -11   98.46    5.36
  -3   6 -12    6.02    0.79
  -3   6 -12    6.34    0.91
  -3   6 -13  186.79    9.49
  -3   6 -13  172.65    9.27
  -3   6 -13  188.22    9.51
  -3   6 -14   11.64    1.16
  -3   6 -14   14.50    1.24
  -3   6 -15  188.34    9.69
  -3   6 -15  186.76    9.63
  -3   6 -16    8.03    0.77
  -3   6 -16    9.40    0.90
  -3   6 -17   17.72    1.25
  -3   6 -18   27.12    1.62
  -3   5  20   14.10    0.99
   3  -5 -19   16.84    1.33
  -3   5  19   22.88    1.40
   3  -5 -18    3.02    0.48
  -3   5  18    4.42    0.63
  -3   5  17   53.29    3.20
  -3   5  16    0.54    0.36
  -3   5  16    1.77    0.56
  -3   5  15   97.47    5.53
  -3   5  15  108.05    5.74
  -3   5  14    1.27    0.50
   3  -5 -14   -0.35    0.96
   3  -5 -14    0.35    0.96
  -3   5  14    0.68    0.54
  -3   5  13    3.03    0.66
   3  -5 -13    2.47    1.42
   3  -5 -13    2.58    1.16
   3  -5 -13    2.84    1.38
  -3   5  13    4.49    0.79
  -3   5  12   14.57    1.34
  -3   5  12   15.14    1.42
   3  -5 -12   14.79    2.48
   3  -5 -12    9.29    2.23
  -3   5  11    9.17    1.03
   3  -5 -11    3.84    1.42
   3  -5 -11   10.32    2.21
   3  -5 -11    8.83    2.07
  -3   5  10  112.09    6.02
   3  -5 -10   94.53    7.73
   3  -5 -10  115.86    8.43
   3  -5 -10   96.94    8.21
  -3   5   9   14.56    1.36
   3  -5  -9   18.61    2.66
   3  -5  -9   15.46    2.55
  -3   5   8  118.24    6.27
   3  -5  -8  104.20    8.07
  -3   5   8  111.87    7.33
   3  -5  -8  109.68    8.16
  -3   5   7  130.56    6.58
  -3   5   7  117.94    6.36
  -3   5   7  129.92    7.83
   3  -5  -7  110.80    6.34
   3  -5  -7  130.50    8.57
  -3   5   6    0.64    0.45
   3  -5  -6    0.24    0.82
   3  -5  -6    0.32    0.32
  -3   5   6   -0.36    0.91
   3  -5  -5   90.86    6.78
  -3   5   5   96.10    6.53
   3  -5  -5  101.00    6.90
   3  -5  -4   17.29    2.26
   3  -5  -4   14.29    2.09
  -3   5   4   12.97    1.95
   3  -5  -3   29.70    3.25
   3  -5  -3   40.88    3.50
  -3   5   3   37.62    3.43
   3  -5  -2    5.04    1.16
  -3   5   2    2.61    0.99
   3  -5  -1   17.25    2.22
   3  -5   0  307.73   16.98
  -3   5  -1   40.80    3.80
   3  -5   1   35.27    3.35
   3  -5   2   95.61    6.23
  -3   5  -2   98.48    6.79
  -3   5  -2   84.13    6.07
   3  -5   3  100.75    6.37
  -3   5  -3   94.02    6.82
  -3   5  -3   91.28    6.29
  -3   5  -4   96.73    6.56
  -3   5  -4  108.08    7.19
   3  -5   4  113.32    6.56
  -3   5  -4   95.16    5.33
  -3   5  -5   26.66    3.11
  -3   5  -5   24.79    1.75
  -3   5  -5   27.00    2.72
  -3   5  -5   26.58    1.77
  -3   5  -6   27.11    1.71
  -3   5  -6   21.93    1.63
  -3   5  -6   27.05    2.67
   3  -5   6   22.71    1.65
  -3   5  -6   28.34    3.14
  -3   5  -6   24.36    1.72
  -3   5  -7  630.41   31.66
  -3   5  -7  638.43   31.56
  -3   5  -7  644.59   31.62
  -3   5  -7  660.57   33.06
   3  -5   7  637.13   31.61
  -3   5  -8   10.31    1.04
   3  -5   8   11.67    1.04
  -3   5  -8   10.38    1.08
  -3   5  -8   10.50    1.63
  -3   5  -9   34.77    2.26
   3  -5   9   31.61    2.16
  -3   5 -10   70.67    4.23
  -3   5 -10   76.05    4.23
   3  -5  10   69.76    4.12
  -3   5 -11    7.84    1.00
  -3   5 -11    7.70    0.96
   3  -5  11    6.51    0.83
  -3   5 -11    6.51    0.80
  -3   5 -12   96.25    5.31
   3  -5  12   89.71    5.16
  -3   5 -12   94.15    5.12
  -3   5 -13    9.68    0.93
  -3   5 -13   11.93    1.21
  -3   5 -13   10.58    1.13
   3  -5  13    9.33    0.99
  -3   5 -14   81.64    4.51
   3  -5  14   75.49    4.38
  -3   5 -15    1.60    0.53
  -3   5 -16    8.97    1.00
  -3   5 -16   10.41    0.93
  -3   5 -17   46.40    2.78
  -3   5 -18   14.39    1.13
  -3   5 -19   97.99    5.09
  -3   4  21    1.37    0.24
   3  -4 -20    2.97    0.40
  -3   4  20    4.51    0.48
   3  -4 -19    2.62    0.49
   3  -4 -19    2.01    0.39
   3  -4 -18   58.20    3.73
   3  -4 -18   63.09    3.62
  -3   4  17    0.11    0.41
  -3   4  16   92.83    5.19
  -3   4  15    9.72    1.09
  -3   4  14   13.62    1.17
   3  -4 -14   15.12    2.74
  -3   4  14   11.98    1.27
   3  -4 -14   10.95    2.49
  -3   4  13  260.53   13.54
   3  -4 -13  257.36   16.49
  -3   4  13  278.30   13.68
   3  -4 -13  251.89   15.60
   3  -4 -13  251.30   16.60
  -3   4  12    3.06    0.68
   3  -4 -12    3.25    1.26
   3  -4 -12    2.70    1.27
   3  -4 -12    2.50    1.39
  -3   4  12    2.90    0.72
  -3   4  11  195.28   10.19
   3  -4 -11  212.93   12.50
  -3   4  10    3.12    0.65
   3  -4 -10    1.34    1.16
  -3   4   9   26.29    1.92
   3  -4  -9   29.20    3.44
   3  -4  -9   22.86    2.96
  -3   4   8   75.68    4.29
   3  -4  -8   73.86    5.92
   3  -4  -8   71.99    5.75
  -3   4   8   71.11    5.09
  -3   4   7    9.99    1.05
   3  -4  -7    8.69    0.87
   3  -4  -7    9.66    1.83
  -3   4   7   11.66    1.63
   3  -4  -7    9.76    1.78
  -3   4   6  736.73   37.95
   3  -4  -6  758.99   38.65
  -3   4   5    8.72    1.42
   3  -4  -5    5.73    1.40
  -3   4   4  164.28    9.29
   3  -4  -4  150.75    9.49
   3  -4  -4  154.77    9.51
  -3   4   3   90.48    5.75
   3  -4  -3   84.61    5.80
   3  -4  -3   81.73    5.85
   3  -4  -2   95.45    6.07
   3  -4  -2   83.87    5.74
  -3   4   2   85.56    5.72
   3  -4  -1  318.33   17.21
  -3   4   1  303.93   16.94
   3  -4  -1  334.15   17.10
   3  -4   0   16.02    1.93
   3  -4   1  237.66   13.23
   3  -4   2   55.29    4.02
  -3   4  -2   48.78    3.78
  -3   4  -3  259.49   15.13
  -3   4  -3  281.14   15.75
   3  -4   3  311.05   15.47
   3  -4   4  603.53   28.88
  -3   4  -4  528.55   28.75
  -3   4  -4  549.08   29.29
  -3   4  -5   18.80    2.35
  -3   4  -5   17.63    2.05
  -3   4  -6  459.17   24.42
  -3   4  -6  452.51   23.81
  -3   4  -7    2.79    0.52
  -3   4  -7    2.32    0.91
   3  -4   8   99.80    5.45
  -3   4  -8  109.71    6.54
   3  -4   8  100.21    5.38
  -3   4  -8   98.53    5.42
  -3   4  -9   56.89    3.33
   3  -4   9   54.99    3.30
  -3   4  -9   57.06    3.30
   3  -4   9   53.29    3.21
  -3   4 -10   11.58    1.14
   3  -4  10   10.58    1.02
  -3   4 -10   11.12    1.09
   3  -4  10   11.49    1.09
  -3   4 -11  187.07    9.56
  -3   4 -11  185.59    9.52
   3  -4  11  182.55    9.50
   3  -4  11  172.32    9.38
  -3   4 -12    0.10    0.38
  -3   4 -12    0.14    0.52
   3  -4  12    0.17    0.41
   3  -4  12   -0.06    0.46
  -3   4 -12   -0.20    0.53
   3  -4  13   81.89    4.66
   3  -4  13   77.86    4.52
  -3   4 -13   82.82    4.71
  -3   4 -14   16.13    1.46
   3  -4  14   14.38    1.34
  -3   4 -14   13.07    1.31
  -3   4 -15    2.29    0.69
  -3   4 -15    2.08    0.53
   3  -4  15    1.50    0.52
  -3   4 -16   48.42    2.85
   3  -4  16   44.38    2.66
   3  -4  17    1.79    0.46
  -3   4 -18   79.13    4.40
  -3   3  21   40.63    2.23
   3  -3 -20    0.65    0.27
  -3   3  20    0.65    0.28
   3  -3 -20    0.75    0.24
   3  -3 -19    8.98    0.89
   3  -3 -19    8.39    0.83
  -3   3  19   10.57    0.88
   3  -3 -18    0.05    0.39
   3  -3 -18    0.29    0.47
  -3   3  18    0.23    0.38
  -3   3  17   35.13    2.29
  -3   3  16   37.96    2.49
   3  -3 -15    6.64    1.92
  -3   3  15    5.00    0.78
  -3   3  14  158.26    8.67
   3  -3 -14  170.78    8.85
  -3   3  13    0.21    0.37
  -3   3  13    0.13    0.47
   3  -3 -13    0.48    0.60
   3  -3 -13   -0.34    1.04
  -3   3  12  154.78    8.47
   3  -3 -12  186.72   11.49
   3  -3 -12  158.44   10.26
  -3   3  12  163.80    8.56
   3  -3 -12  162.98    8.60
  -3   3  11   48.95    3.03
   3  -3 -11   55.09    5.06
   3  -3 -11   49.59    3.05
   3  -3 -11   42.72    4.18
  -3   3  10   55.41    3.44
   3  -3 -10   59.36    3.42
   3  -3 -10   54.79    4.73
   3  -3 -10   59.11    5.21
  -3   3   9  137.54    7.11
   3  -3  -9  115.32    7.73
   3  -3  -9  141.84    8.71
  -3   3   8    0.65    0.61
   3  -3  -8    0.13    0.24
   3  -3  -8    0.20    0.78
   3  -3  -7  352.91   18.79
   3  -3  -7  347.04   19.00
  -3   3   7  335.00   18.11
  -3   3   6    0.13    0.58
   3  -3  -6   -0.19    0.89
   3  -3  -6   -0.53    0.78
   3  -3  -5  471.45   24.12
   3  -3  -5  455.43   23.94
  -3   3   5  444.42   23.41
  -3   3   4  490.32   25.33
   3  -3  -4  500.23   25.80
   3  -3  -3    1.16    0.78
   3  -3  -3    1.91    0.87
   3  -3  -2 1100.57   54.44
   3  -3  -2 1077.77   54.46
   3  -3  -1   31.97    2.75
   3  -3  -1   34.76    2.88
   3  -3   0  540.60   27.70
   3  -3   1    4.25    0.96
   3  -3   2    0.13    0.58
   3  -3   3  266.76   14.35
  -3   3  -4    0.78    0.61
   3  -3   4    1.34    0.63
  -3   3  -5  218.24   11.87
  -3   3  -6    3.82    0.87
  -3   3  -7  274.98   14.79
  -3   3  -8    8.23    1.31
  -3   3  -9   20.50    1.45
  -3   3  -9   16.50    1.82
  -3   3  -9   17.29    1.36
   3  -3   9   17.24    1.32
  -3   3 -10  212.86   11.45
   3  -3  10  231.94   12.95
   3  -3  10  226.09   11.43
  -3   3 -10  230.62   11.52
  -3   3 -11   18.39    1.49
   3  -3  11   14.76    2.12
   3  -3  11   16.70    1.38
  -3   3 -11   19.21    1.50
  -3   3 -12  243.59   12.59
  -3   3 -12  260.75   12.62
   3  -3  12  231.50   12.48
   3  -3  13    0.30    0.40
  -3   3 -13    0.07    0.50
  -3   3 -13   -0.27    0.53
  -3   3 -14   23.41    1.85
   3  -3  14   22.45    1.74
   3  -3  15   79.46    4.49
  -3   3 -15   74.08    4.43
  -3   3 -15   82.28    4.65
   3  -3  16   18.70    1.58
   3  -3  16   19.25    1.52
  -3   3 -16   16.13    1.37
  -3   3 -16   20.22    1.66
  -3   3 -17   51.50    3.15
   3  -3  17   51.41    3.08
   3  -3  17   44.17    2.89
   3  -3  18    2.18    0.58
   3  -3  19   67.51    3.73
  -3   3 -20   12.44    1.03
  -3   3 -21    7.72    0.65
   3  -2 -20   35.13    2.12
   3  -2 -20   42.27    2.24
   3  -2 -19    0.95    0.38
   3  -2 -19    0.38    0.36
  -3   2  19    0.17    0.32
   3  -2 -18   16.69    1.45
  -3   2  18   17.89    1.35
   3  -2 -18   18.66    1.45
   3  -2 -17   34.56    2.60
   3  -2 -17   40.70    2.58
  -3   2  17   38.68    2.44
  -3   2  16   16.59    1.38
   3  -2 -15  152.58    7.90
  -3   2  15  137.53    7.64
  -3   2  14    4.51    0.74
   3  -2 -14    4.37    0.90
  -3   2  13  237.67   12.41
   3  -2 -13  246.08   12.55
   3  -2 -12    1.19    1.11
  -3   2  12    1.21    0.47
   3  -2 -12    1.47    0.63
   3  -2 -11   -0.28    0.86
  -3   2  11    0.17    0.41
   3  -2 -11    0.47    0.49
   3  -2 -11   -0.19    0.56
  -3   2  10  123.43    6.83
   3  -2 -10  128.76    6.85
   3  -2 -10  145.84    8.97
   3  -2 -10  128.19    8.17
   3  -2  -9   -0.18    0.62
   3  -2  -9    0.46    0.83
   3  -2  -8  417.00   21.89
   3  -2  -8  407.70   21.37
   3  -2  -8  392.28   20.73
  -3   2   8  396.38   20.62
   3  -2  -7   36.21    3.09
  -3   2   7   33.13    2.64
   3  -2  -6  384.29   20.47
  -3   2   6  386.43   19.96
   3  -2  -6  395.92   20.77
   3  -2  -5   34.63    3.09
   3  -2  -5   37.60    3.03
   3  -2  -4   26.23    2.35
   3  -2  -4   25.26    2.44
   3  -2  -3   94.73    5.94
   3  -2  -2   85.45    5.36
   3  -2  -2   83.58    5.32
   3  -2  -1  477.74   24.45
   3  -2   0    0.55    0.58
   3  -2   1    7.88    1.17
  -3   2  -2  147.23    8.80
   3  -2   2  161.66    8.75
  -3   2  -3   24.03    2.39
   3  -2   3   28.67    2.33
  -3   2  -4  217.70   12.04
  -3   2  -5    9.58    1.58
  -3   2  -7    4.89    0.92
   3  -2   8   28.02    2.40
  -3   2  -8   28.41    2.37
  -3   2  -9  268.21   14.18
  -3   2 -10   12.83    1.11
   3  -2  10   12.01    1.05
   3  -2  10   13.60    1.88
   3  -2  11   37.61    3.39
  -3   2 -11   36.37    2.33
   3  -2  11   34.01    2.25
  -3   2 -12    9.68    1.08
   3  -2  12   10.03    1.74
   3  -2  12   11.80    1.09
   3  -2  13    2.20    0.58
  -3   2 -13    3.25    0.69
   3  -2  13    2.81    1.03
  -3   2 -13    3.86    0.77
  -3   2 -14  153.63    7.74
  -3   2 -14  137.85    7.56
   3  -2  14  135.73    7.58
   3  -2  15    1.87    0.62
  -3   2 -15    1.74    0.68
  -3   2 -16   36.85    2.45
   3  -2  16   43.98    2.70
   3  -2  17    0.69    0.47
   3  -2  18   55.36    3.30
  -3   2 -19   29.24    1.96
   3  -2  19   25.25    1.83
   3  -2  19   24.22    1.73
   3  -2  20    0.79    0.34
   3  -2  20    1.49    0.42
  -3   2 -21  103.55    4.73
   3  -2  21   80.30    4.55
   3  -1 -20   -0.03    0.27
   3  -1 -19   27.98    1.78
   3  -1 -19   23.27    1.66
   3  -1 -18    2.24    0.57
   3  -1 -18    2.28    0.60
  -3   1  18    2.29    0.48
   3  -1 -17    0.34    0.50
  -3   1  17    0.65    0.43
   3  -1 -17    0.49    0.50
   3  -1 -16   80.12    4.89
   3  -1 -16   91.87    4.90
   3  -1 -16   85.66    4.84
  -3   1  16   75.24    4.57
  -3   1  15    2.69    0.64
   3  -1 -15    5.26    1.70
   3  -1 -15    4.49    0.88
  -3   1  14  395.26   20.71
   3  -1 -14  434.25   20.96
   3  -1 -14  439.16   24.36
  -3   1  13    0.90    0.44
   3  -1 -13    0.27    0.62
   3  -1 -12    2.69    0.72
  -3   1  12    1.88    0.49
   3  -1 -11  157.47    8.05
  -3   1  11  145.81    7.91
   3  -1 -10   37.86    3.29
   3  -1 -10   41.88    2.63
   3  -1  -9  138.34    8.20
   3  -1  -9  111.40    7.28
   3  -1  -8   18.52    1.99
   3  -1  -8   19.70    2.36
   3  -1  -8   19.08    1.69
   3  -1  -7  195.14   10.83
   3  -1  -7  167.69   10.25
   3  -1  -7  192.30   10.10
   3  -1  -6   82.93    5.22
   3  -1  -6   80.15    5.00
   3  -1  -5    1.63    0.68
   3  -1  -4  215.47   11.53
   3  -1  -4  202.41   11.28
   3  -1  -3   -0.11    0.59
   3  -1  -3    0.10    0.49
   3  -1  -1  107.79    5.53
   3  -1  -1  128.19    6.53
   3  -1   0    0.57    0.53
   3  -1   1  272.21   14.29
  -3   1  -2   11.08    1.38
   3  -1   2   11.79    1.38
  -3   1  -3 1029.51   50.35
   3  -1   3  995.98   50.23
  -3   1  -4   33.24    2.69
  -3   1  -5  391.46   20.38
  -3   1  -6  857.09   43.17
   3  -1   7  219.12   11.72
   3  -1   8 1240.80   61.33
  -3   1  -9    1.23    0.51
   3  -1  10   76.27    5.37
   3  -1  11   54.43    3.27
   3  -1  11   64.73    4.60
  -3   1 -12    0.95    0.44
   3  -1  12   -0.11    0.41
   3  -1  12    0.20    0.74
   3  -1  12    0.22    0.40
   3  -1  13  158.52    8.10
  -3   1 -13  156.05    8.03
   3  -1  13  158.23    9.69
   3  -1  13  140.37    8.01
   3  -1  14   -0.13    0.47
  -3   1 -14    0.06    0.42
   3  -1  14    0.39    0.44
   3  -1  14    0.23    0.76
   3  -1  15  165.87    9.31
  -3   1 -15  171.03    9.17
   3  -1  16    3.57    0.75
   3  -1  17   23.75    1.85
  -3   1 -17   22.98    1.91
  -3   1 -18   32.19    2.24
   3  -1  18   27.49    2.08
   3  -1  19    0.98    0.46
  -3   1 -19    1.48    0.59
  -3   1 -20   26.94    1.91
   3  -1  20   27.41    1.81
   3  -1  21    1.68    0.44
   3  -1  21    1.48    0.35
  -3   1 -22   29.41    1.63
   3  -1  22   26.33    1.59
   3   0 -21    0.24    0.27
   3   0 -20    8.59    0.79
   3   0 -19   65.90    3.53
   3   0 -19   56.66    3.33
   3   0 -18    0.30    0.48
   3   0 -18    1.34    0.50
   3   0 -17    4.30    0.79
   3   0 -17    4.12    0.76
   3   0 -16    1.54    0.68
   3   0 -16    2.46    0.75
   3   0 -16    2.18    0.71
   3   0 -15   54.79    5.73
   3   0 -15   61.38    3.66
   3   0 -15   53.68    3.61
  -3   0  15   55.61    3.39
   3   0 -14   36.74    2.55
   3   0 -14   35.60    2.53
   3   0 -14   31.77    4.24
  -3   0  14   31.44    2.23
   3   0 -13   34.21    4.15
   3   0 -13   30.28    2.27
  -3   0  13   29.55    2.05
  -3   0  12  126.68    7.16
   3   0 -12  138.27   10.01
   3   0 -12  149.62    7.42
   3   0 -11    2.82    1.30
   3   0 -11    3.66    0.73
  -3   0  11    3.85    0.58
   3   0 -10   43.43    4.32
   3   0 -10   40.20    2.58
   3   0  -9  122.42    8.02
   3   0  -9  103.16    6.41
   3   0  -8    0.67    0.51
   3   0  -8    0.46    0.95
   3   0  -7  214.90   12.35
   3   0  -7  242.91   13.19
   3   0  -7  205.77   11.85
   3   0  -7  228.88   11.63
   3   0  -6    9.78    1.14
   3   0  -6    6.85    1.51
   3   0  -6    8.75    1.21
   3   0  -6   11.90    1.53
   3   0  -5  741.98   36.90
   3   0  -5  754.86   36.49
   3   0  -5  695.85   36.54
   3   0  -4   12.99    1.35
   3   0  -4   12.06    1.35
   3   0  -3  150.96    8.33
   3   0  -3  154.02    8.41
   3   0  -2   72.09    4.24
   3   0  -2   66.04    3.59
   3   0  -2   66.28    4.16
   3   0  -1   71.20    3.82
   3   0   0  369.45   19.77
   3   0   0  396.42   19.30
   3   0   1    1.03    0.56
  -3   0  -2  497.08   25.09
  -3   0  -3   52.61    3.46
   3   0   4  220.26   11.88
  -3   0  -4  233.40   12.08
   3   0   5   35.61    2.53
  -3   0  -5   34.63    2.75
   3   0   6  119.33    6.71
   3   0   7  705.24   35.18
   3   0   8    9.18    1.08
   3   0   9  574.54   27.10
   3   0   9  498.31   26.01
   3   0  10    5.83    1.20
   3   0  11  126.63    7.98
   3   0  12  289.51   15.07
   3   0  12  262.70   13.39
   3   0  12  256.96   13.39
  -3   0 -13   52.98    3.22
   3   0  13   56.91    4.63
   3   0  13   55.78    3.33
   3   0  13   55.19    3.32
   3   0  14  142.80    7.55
   3   0  14  136.07    9.14
   3   0  14  138.67    7.53
   3   0  15   10.07    1.12
   3   0  15    9.50    1.89
   3   0  15   10.32    1.17
   3   0  16    3.12    0.69
   3   0  16    3.07    0.72
  -3   0 -17  211.90   10.33
   3   0  17  187.92   10.18
   3   0  17  184.51   10.19
   3   0  18   92.63    5.44
  -3   0 -18  101.34    5.55
  -3   0 -19   26.54    1.98
   3   0  19   27.05    1.95
   3   0  20    2.75    0.60
  -3   0 -20    3.47    0.67
  -3   0 -21   16.10    1.28
   3   0  21   17.55    1.27
  -3   0 -22    4.85    0.52
   3   0  22    4.71    0.52
   3   0  22    5.15    0.58
   3   0  22    5.22    0.68
   3   1 -21    4.55    0.52
   3   1 -20   10.64    0.99
   3   1 -19    3.97    0.64
   3   1 -18   88.56    4.84
   3   1 -18   82.17    4.65
   3   1 -17    8.14    1.05
   3   1 -17    7.36    0.94
   3   1 -16    8.42    1.07
   3   1 -16    8.21    1.15
   3   1 -15  107.51    8.94
   3   1 -15  124.59    6.73
   3   1 -15  116.60    6.63
   3   1 -15  118.46    6.68
   3   1 -14  119.30    6.60
   3   1 -14  108.70    8.89
   3   1 -14  118.68    6.59
   3   1 -14  114.14    6.52
   3   1 -13  130.18    7.18
   3   1 -13  130.07    7.14
   3   1 -13  122.26    9.45
   3   1 -12    0.32    1.06
   3   1 -12    2.40    0.68
   3   1 -12    1.47    0.74
   3   1 -11  346.15   19.00
   3   1 -11  317.24   16.35
   3   1 -10    7.88    0.92
   3   1 -10    7.59    1.79
   3   1  -9  145.89    9.55
   3   1  -8  138.09    8.89
   3   1  -7    0.95    0.85
   3   1  -7    1.04    0.40
   3   1  -6  991.07   50.36
   3   1  -6 1001.02   49.31
   3   1  -5    0.61    0.48
   3   1  -5    1.95    0.92
   3   1  -5    1.08    0.47
   3   1  -4  102.98    6.38
   3   1  -4  124.43    6.45
   3   1  -4  116.56    6.99
   3   1  -3  144.75    7.77
   3   1  -3  135.41    7.42
   3   1  -3  145.08    7.72
   3   1  -2  154.05    7.94
   3   1  -2  144.06    7.86
   3   1  -2  138.56    7.55
   3   1  -1  240.44   12.29
   3   1  -1  243.19   12.59
   3   1   0   51.91    3.08
   3   1   1 3029.74  147.34
   3   1   1 3006.54  147.50
   3   1   2   34.63    2.57
  -3  -1  -2   40.20    2.52
   3   1   3  360.90   18.28
  -3  -1  -3  356.10   18.21
  -3  -1  -4  172.78    8.96
   3   1   4  157.58    8.81
   3   1   5    0.77    0.51
   3   1   6   85.75    4.98
   3   1   7   31.99    2.31
   3   1   8    2.11    0.56
   3   1   8    3.59    0.93
   3   1   9    4.42    1.02
   3   1   9    3.59    0.64
   3   1  10    4.91    1.12
   3   1  11  383.66   20.57
   3   1  12   84.14    5.99
   3   1  12   83.83    4.68
   3   1  13   54.78    3.33
   3   1  13   57.85    4.73
   3   1  13   55.49    3.34
   3   1  14    3.11    0.63
   3   1  14    2.62    1.19
   3   1  14    2.26    0.60
   3   1  15   44.63    2.85
   3   1  15   40.61    4.14
   3   1  15   42.24    2.82
   3   1  16   86.10    4.85
   3   1  16   81.54    4.82
   3   1  16   75.61    6.34
   3   1  17   20.00    1.69
   3   1  17   19.14    1.69
   3   1  18   92.13    5.29
   3   1  18   89.34    5.26
  -3  -1 -18   97.09    5.33
  -3  -1 -19    1.14    0.57
   3   1  19    1.17    0.57
   3   1  19    1.38    0.58
  -3  -1 -20   33.92    2.30
   3   1  20   36.23    2.34
  -3  -1 -21   10.26    0.96
   3   1  21   10.77    1.00
   3   1  22   -0.13    0.30
   3   1  22   -0.52    0.58
   3   1  23   41.72    2.18
   3   1  23   36.12    2.09
   3   2 -20    0.41    0.33
   3   2 -19   52.91    3.22
   3   2 -19   55.84    3.20
   3   2 -18    0.27    0.33
   3   2 -18    0.23    0.44
   3   2 -17    2.64    0.69
   3   2 -17    2.25    0.57
   3   2 -16    8.77    1.09
   3   2 -16    6.51    0.89
   3   2 -15    3.38    0.74
   3   2 -15    1.80    0.68
   3   2 -14  170.90    9.26
   3   2 -14  150.43   11.42
   3   2 -14  177.37    9.19
   3   2 -13    9.01    1.13
   3   2 -13    8.52    2.05
   3   2 -13   10.11    1.21
   3   2 -12  222.26   14.12
   3   2 -12  226.23   11.78
   3   2 -11    0.28    0.88
   3   2 -11    0.74    0.48
   3   2 -10   25.34    1.86
   3   2 -10   26.49    3.19
   3   2  -9  102.10    5.72
   3   2  -9  116.20    7.55
   3   2  -8   36.52    3.45
   3   2  -7    0.87    0.40
   3   2  -7    0.54    0.85
   3   2  -6  103.16    6.07
   3   2  -6  123.47    7.05
   3   2  -5  193.76   10.29
   3   2  -5  195.26   10.85
   3   2  -4   28.07    2.36
   3   2  -4   25.21    2.05
   3   2  -4   25.44    2.00
   3   2  -3   12.58    1.38
   3   2  -3   11.24    1.25
   3   2  -3   12.54    1.28
   3   2  -2  605.52   30.22
   3   2  -2  602.79   30.15
   3   2  -1  172.16    8.90
   3   2  -1  160.34    8.98
   3   2   0 7949.61  386.84
   3   2   1   10.62    1.13
  -3  -2  -1    8.99    0.86
   3   2   1    8.77    1.15
  -3  -2  -2   86.80    4.97
   3   2   2   90.34    5.34
   3   2   3  378.11   19.24
   3   2   4   53.95    3.43
   3   2   5  334.84   17.13
   3   2   6    0.93    0.50
   3   2   7  427.70   21.39
   3   2   7  404.25   20.91
   3   2   8  208.78   10.96
   3   2   8  207.64   11.52
   3   2   9   54.02    3.50
   3   2   9   65.16    4.34
   3   2  10  187.57   10.82
   3   2  11   24.95    2.67
   3   2  12  131.21    7.01
   3   2  12  134.79    8.54
   3   2  13    6.33    0.86
   3   2  13    5.36    1.51
   3   2  14   21.51    2.87
   3   2  14   24.62    1.83
   3   2  15   31.93    3.52
   3   2  15   28.68    2.13
   3   2  16    8.38    1.03
   3   2  16    8.15    1.05
   3   2  17    2.60    0.71
   3   2  17    3.51    0.72
   3   2  18    2.44    0.72
   3   2  18    2.17    0.66
   3   2  19    3.56    0.77
  -3  -2 -19    5.66    0.84
   3   2  19    4.53    0.78
  -3  -2 -20    1.49    0.55
   3   2  20    2.01    0.60
   3   2  20    2.67    0.62
   3   2  21    3.04    0.59
  -3  -2 -21    3.27    0.57
   3   2  22   58.52    3.57
   3   2  22   55.33    3.17
   3   2  23    0.12    0.23
   3   2  23    0.27    0.43
   3   3 -20   15.80    1.11
   3   3 -19    0.21    0.37
   3   3 -18    0.27    0.45
   3   3 -18   -0.39    0.54
   3   3 -17    6.95    0.96
   3   3 -17    7.39    0.80
   3   3 -16    2.09    0.71
   3   3 -16    1.82    0.98
   3   3 -16    2.98    0.64
   3   3 -15   17.99    1.94
   3   3 -15   17.35    1.64
   3   3 -15   16.01    1.46
   3   3 -14   29.31    2.21
   3   3 -14   29.58    2.09
   3   3 -14   28.35    2.42
   3   3 -14   25.57    1.91
   3   3 -13  169.15    8.62
   3   3 -13  137.49   10.63
   3   3 -13  146.87    8.29
   3   3 -13  169.02    8.53
   3   3 -12   13.12    1.27
   3   3 -12   14.55    2.48
   3   3 -12   15.94    1.54
   3   3 -12   16.00    1.42
   3   3 -11    9.55    0.98
   3   3 -11    8.22    1.87
   3   3 -11    9.64    1.07
   3   3 -11    8.94    1.09
   3   3 -10  234.25   13.40
   3   3 -10  232.25   11.43
   3   3 -10  198.83   11.21
   3   3 -10  234.82   11.45
   3   3  -9   56.36    4.57
   3   3  -9   50.55    3.12
   3   3  -9   49.93    3.10
   3   3  -8  201.72   11.87
   3   3  -7   34.40    3.15
   3   3  -6   41.75    3.38
   3   3  -5   62.81    4.13
   3   3  -5   55.14    3.71
   3   3  -4   61.61    3.90
   3   3  -4   59.17    4.01
   3   3  -4   63.23    4.09
   3   3  -3  219.05   11.98
   3   3  -3  223.83   11.87
   3   3  -3  230.33   11.87
   3   3  -2  310.90   16.12
   3   3  -2  308.03   16.01
   3   3  -2  310.73   15.80
   3   3  -1   25.08    2.01
   3   3  -1   23.69    1.44
   3   3  -1   25.72    1.70
   3   3  -1   26.62    2.12
   3   3   0   35.70    2.15
   3   3   0   35.99    2.08
   3   3   0   39.14    2.71
   3   3   1   34.74    2.18
   3   3   2   15.68    1.55
   3   3   2   15.03    1.28
   3   3   3   22.68    1.87
   3   3   3   21.26    1.74
   3   3   4   25.99    2.12
   3   3   4   27.40    2.05
   3   3   4   25.55    2.22
   3   3   5   47.35    3.22
   3   3   5   49.51    3.30
   3   3   6  309.06   15.97
   3   3   7   66.72    4.15
   3   3   8   69.73    4.56
   3   3   8   62.96    4.03
  -3  -3  -8   62.30    4.24
  -3  -3  -9  421.95   21.11
   3   3   9  416.75   21.23
   3   3   9  382.12   20.40
   3   3  10   37.56    3.34
  -3  -3 -10   36.59    3.29
   3   3  11    6.58    1.40
  -3  -3 -11    5.05    1.35
   3   3  12   -0.05    0.38
   3   3  12    0.21    0.65
   3   3  13   16.00    2.35
   3   3  13   14.00    1.28
   3   3  14  182.13   11.31
   3   3  14  175.67    9.34
   3   3  15    0.14    0.54
   3   3  16   44.92    2.98
   3   3  17    3.49    0.76
   3   3  17    2.95    0.74
   3   3  18    1.51    0.62
   3   3  18    2.30    0.67
  -3  -3 -19   32.74    2.34
   3   3  19   38.02    2.52
   3   3  19   36.75    2.51
  -3  -3 -20   88.86    5.00
   3   3  20   98.79    5.21
   3   3  20   88.79    5.13
   3   3  21   24.96    1.72
   3   3  21   22.37    1.68
   3   3  22   10.33    0.95
   3   3  22   11.32    1.32
   3   3  23   38.99    2.42
   3   3  23   35.30    2.12
   3   4 -19   15.53    1.15
   3   4 -18    3.49    0.61
   3   4 -17   20.65    1.48
   3   4 -17   24.81    1.78
   3   4 -16   60.54    3.50
   3   4 -15    3.08    0.59
   3   4 -15    3.35    1.20
   3   4 -15    2.80    0.60
   3   4 -14   14.56    1.28
   3   4 -14   11.11    1.17
   3   4 -14   13.31    1.84
   3   4 -13   54.05    3.49
   3   4 -13   58.29    3.56
   3   4 -13   64.82    3.87
   3   4 -12   10.85    1.14
   3   4 -12   12.06    1.40
   3   4 -12    7.73    1.02
   3   4 -12   10.84    1.24
   3   4 -11  135.49    7.07
   3   4 -11  134.23    7.14
   3   4 -11  132.29    7.15
   3   4 -11  119.12    6.93
   3   4 -10    0.82    0.48
   3   4 -10   -0.24    0.84
   3   4 -10    1.15    0.49
   3   4 -10    0.74    0.47
   3   4 -10    0.40    0.57
   3   4  -9  162.63    8.63
   3   4  -9  174.27   10.31
   3   4  -9  154.83    8.50
   3   4  -9  154.43    8.41
   3   4  -9  177.94    8.69
   3   4  -9  169.09    8.60
   3   4  -8    0.39    0.78
   3   4  -8    0.36    0.49
   3   4  -8    0.39    0.40
   3   4  -8    0.17    0.34
   3   4  -8    0.34    0.47
   3   4  -8    0.17    0.41
   3   4  -7  217.56   12.38
   3   4  -6   90.47    5.84
   3   4  -5   71.51    4.71
   3   4  -4  613.05   30.53
   3   4  -4  594.58   30.86
   3   4  -3   65.16    4.36
   3   4  -3   61.67    3.85
   3   4  -3   60.03    4.07
   3   4  -2  142.49    8.26
   3   4  -2  140.98    7.59
   3   4  -2  152.69    8.19
   3   4  -2  138.99    8.02
   3   4  -1   53.20    3.58
   3   4  -1   49.73    3.51
   3   4   0   34.14    2.74
   3   4   0   41.59    2.92
   3   4   1   46.27    2.75
   3   4   2    0.65    0.41
   3   4   2    0.11    0.64
   3   4   2    1.09    0.67
   3   4   3  360.26   18.64
   3   4   3  350.45   18.27
   3   4   3  370.68   18.72
   3   4   3  365.32   18.70
   3   4   4    2.62    0.89
   3   4   4    2.33    0.62
   3   4   4    2.22    0.79
   3   4   4    2.15    0.75
   3   4   5   71.05    4.58
   3   4   5   71.24    4.40
   3   4   5   69.57    4.44
   3   4   5   66.32    4.46
   3   4   6    1.09    0.72
   3   4   6    0.66    0.63
   3   4   6    0.56    0.61
   3   4   6    0.51    0.58
   3   4   7  138.00    8.03
   3   4   7  129.79    7.70
  -3  -4  -7  139.25    7.48
  -3  -4  -8  100.77    5.89
   3   4   8   94.17    5.84
  -3  -4  -9   97.28    6.11
   3   4  10   51.02    4.31
  -3  -4 -10   62.01    4.42
   3   4  11   17.23    2.33
  -3  -4 -11   22.63    2.52
   3   4  12    1.11    1.00
  -3  -4 -12    0.68    0.78
  -3  -4 -13  207.77   12.59
   3   4  13  197.20   12.34
   3   4  14  159.04    8.47
   3   4  15  344.75   17.55
   3   4  16    1.65    0.64
   3   4  17   10.57    1.24
   3   4  18   82.21    4.83
   3   4  19    2.41    0.70
   3   4  20  108.12    5.40
  -3  -4 -20   86.73    5.06
   3   4  21   18.77    1.49
   3   4  21   20.11    1.97
   3   4  22   22.38    1.61
   3   4  22   22.04    1.59
   3   4  23    0.38    0.29
   3   4  23    0.50    0.53
   3   5 -19   56.17    3.02
   3   5 -18    1.15    0.40
   3   5 -17  122.34    6.53
   3   5 -16    1.22    0.39
   3   5 -16    1.71    0.60
   3   5 -15   12.03    1.12
   3   5 -15   13.38    1.46
   3   5 -15   11.92    1.10
   3   5 -14   13.71    1.33
   3   5 -14   15.28    1.50
   3   5 -14   15.30    1.33
   3   5 -14   17.15    1.90
   3   5 -13    7.61    0.98
   3   5 -13    7.72    0.96
   3   5 -13    8.31    1.09
   3   5 -13    7.45    1.56
   3   5 -12   71.67    4.38
   3   5 -12   83.01    4.63
   3   5 -12   73.11    4.49
   3   5 -12   74.83    4.38
   3   5 -11   17.84    1.56
   3   5 -11   18.12    1.65
   3   5 -11   19.31    1.69
   3   5 -11   18.71    1.55
   3   5 -10  128.85    7.20
   3   5 -10  138.55    7.40
   3   5 -10  144.83    7.51
   3   5 -10  131.63    7.36
   3   5 -10  137.16    7.53
   3   5 -10  148.25    7.50
   3   5  -9   11.54    1.09
   3   5  -9   15.23    1.35
   3   5  -9   12.93    1.24
   3   5  -9   13.31    1.31
   3   5  -9   16.20    1.33
   3   5  -9   15.22    1.38
   3   5  -9   14.68    1.19
   3   5  -8  186.40    9.78
   3   5  -8  184.12    9.65
   3   5  -8  197.30    9.84
   3   5  -8  181.65    9.73
   3   5  -8  176.66    9.55
   3   5  -8  194.03    9.72
   3   5  -8  192.29    9.70
   3   5  -8  181.09    9.57
   3   5  -8  181.87    9.52
   3   5  -8  190.34    9.80
   3   5  -7   42.46    2.59
   3   5  -7   41.34    2.50
   3   5  -7   38.17    2.46
   3   5  -7   42.57    2.65
   3   5  -7   41.27    2.58
   3   5  -7   43.44    2.74
   3   5  -7   39.19    2.60
   3   5  -7   39.14    2.52
   3   5  -5   24.43    1.57
   3   5  -4   58.55    4.22
   3   5  -4   49.82    2.86
   3   5  -3  424.31   21.26
   3   5  -3  455.04   22.41
   3   5  -2   28.07    2.45
   3   5  -2   25.02    1.59
   3   5  -1    2.41    0.84
   3   5  -1    0.93    0.34
   3   5   0   54.39    4.08
   3   5   0   59.70    3.28
   3   5   0   64.01    4.25
   3   5   0   64.28    4.41
   3   5   1   98.21    6.25
   3   5   2  610.15   31.93
   3   5   2  652.15   32.16
   3   5   3    0.52    0.69
   3   5   3   -0.12    0.62
   3   5   3    0.13    0.61
   3   5   4   35.79    2.68
   3   5   4   34.64    2.93
   3   5   4   43.27    3.14
   3   5   4   33.61    2.88
   3   5   5  397.05   19.52
   3   5   5  376.83   20.51
   3   5   5  397.47   20.64
   3   5   5  391.48   20.38
   3   5   5  402.87   20.61
   3   5   6    0.48    0.31
   3   5   6    0.86    0.66
   3   5   6    0.80    0.71
   3   5   6    1.31    0.78
   3   5   7  348.40   17.88
   3   5   7  355.96   17.87
   3   5   7  337.24   17.77
   3   5   7  326.96   16.61
   3   5   8   23.63    2.41
   3   5   8   26.42    2.59
   3   5   8   22.81    1.48
  -3  -5  -8   23.02    2.01
   3   5   8   25.17    2.33
   3   5   9   34.40    3.15
  -3  -5  -9   33.41    2.73
   3   5   9   37.02    3.06
   3   5   9   29.73    1.87
   3   5  10   67.66    4.96
  -3  -5 -10   66.61    4.80
   3   5  11    0.19    0.69
  -3  -5 -11    0.19    0.68
   3   5  12   83.80    5.68
   3   5  12   64.36    4.01
  -3  -5 -12   78.72    5.65
   3   5  12   72.04    4.07
   3   5  13   47.79    3.17
  -3  -5 -13   57.27    4.88
   3   5  13   57.75    3.30
   3   5  13   54.19    4.57
   3   5  14  341.74   17.71
  -3  -5 -14  341.80   18.07
   3   5  14  291.77   15.53
   3   5  15    0.71    0.85
   3   5  16    6.02    1.70
   3   5  16   12.12    1.24
   3   5  17   21.59    1.84
   3   5  18   28.81    2.02
   3   5  18   22.81    1.97
   3   5  19   36.41    2.50
   3   5  19   35.87    3.01
   3   5  19   38.15    2.58
   3   5  20    9.92    1.10
   3   5  20   10.32    1.12
   3   5  20    9.86    1.54
   3   5  21    1.28    0.52
   3   5  21    0.95    0.47
   3   5  21    0.09    0.81
   3   5  22    2.64    0.53
   3   5  22    2.49    0.85
   3   5  23   13.20    1.29
   3   6 -18   87.75    4.58
   3   6 -17    5.65    0.69
   3   6 -16    0.98    0.48
   3   6 -15    9.77    0.98
   3   6 -15    9.51    0.92
   3   6 -15    8.86    1.05
   3   6 -14    0.69    0.44
   3   6 -14   -0.24    0.88
   3   6 -14    0.17    0.49
   3   6 -13   49.87    3.41
   3   6 -13   50.75    3.12
   3   6 -13   50.83    3.17
   3   6 -12   14.85    1.32
   3   6 -12   14.05    1.36
   3   6 -12   11.87    1.13
   3   6 -12   15.65    1.44
   3   6 -12   14.05    1.78
   3   6 -11   89.64    5.24
   3   6 -11   97.33    5.39
   3   6 -11  105.95    5.59
   3   6 -11   94.95    5.47
   3   6 -11   94.85    5.42
   3   6 -10    1.01    0.48
   3   6 -10    0.86    0.52
   3   6 -10    0.95    0.58
   3   6 -10    0.90    0.47
   3   6 -10    1.45    0.55
   3   6 -10    0.88    0.40
   3   6 -10    2.16    0.77
   3   6  -9    4.23    0.83
   3   6  -9    4.81    0.85
   3   6  -9    4.98    0.77
   3   6  -9    4.90    0.74
   3   6  -9    4.21    0.83
   3   6  -9    4.58    0.75
   3   6  -9    4.41    0.76
   3   6  -9    5.56    0.91
   3   6  -9    4.51    0.68
   3   6  -8  139.12    7.27
   3   6  -8  123.54    6.95
   3   6  -8  132.28    7.03
   3   6  -8  127.79    7.18
   3   6  -8  134.16    7.12
   3   6  -8  132.23    7.18
   3   6  -8  134.44    7.09
   3   6  -8  129.53    7.07
   3   6  -8  132.78    7.13
   3   6  -7   26.37    2.07
   3   6  -7   26.54    1.92
   3   6  -7   26.81    1.86
   3   6  -7   27.27    1.91
   3   6  -7   28.57    2.02
   3   6  -7   27.67    1.91
   3   6  -7   23.35    1.92
   3   6  -7   30.77    2.11
   3   6  -7   26.36    1.92
   3   6  -6   52.82    3.11
   3   6  -6   47.62    2.83
   3   6  -6   49.34    3.05
   3   6  -6   48.15    2.85
   3   6  -6   45.31    2.85
   3   6  -6   42.33    2.78
   3   6  -6   46.38    2.86
   3   6  -6   43.69    2.85
   3   6  -6   46.98    2.94
   3   6  -5    0.42    0.38
   3   6  -5    1.50    0.62
   3   6  -5    0.60    0.42
   3   6  -5    0.15    0.37
   3   6  -5    0.77    0.53
   3   6  -5    0.83    0.38
   3   6  -5    0.56    0.40
   3   6  -4    1.28    0.39
   3   6  -4    0.78    0.66
   3   6  -3   -0.16    0.67
   3   6  -3   -0.04    0.30
   3   6  -2   10.37    1.53
   3   6  -2    6.18    0.69
   3   6  -1  137.72    7.21
   3   6  -1  139.12    8.51
   3   6  -1  148.74    8.78
   3   6   0   74.91    4.09
   3   6   0   77.30    5.47
   3   6   0   73.91    5.17
   3   6   1   74.35    4.12
   3   6   1   85.73    5.55
   3   6   2    0.99    1.06
   3   6   3    2.83    0.47
   3   6   3    2.41    1.08
   3   6   4   81.33    5.48
   3   6   4   78.90    4.32
   3   6   4   85.62    5.55
   3   6   5   78.09    5.15
   3   6   5   78.97    5.20
   3   6   5   70.81    3.98
   3   6   6  193.45   10.96
   3   6   6  188.72   11.04
   3   6   6  191.63    9.74
   3   6   7   31.95    2.97
   3   6   7   34.48    2.99
   3   6   7   31.84    2.00
   3   6   8  400.60   20.65
   3   6   8  414.46   20.66
   3   6   8  377.77   19.22
   3   6   9   22.05    1.53
   3   6   9   26.45    2.56
   3   6   9   25.75    2.60
   3   6  10   63.03    3.77
   3   6  10   72.11    5.03
   3   6  11   96.27    5.61
   3   6  11  107.51    6.96
   3   6  11  107.49    5.61
   3   6  12  100.70    5.79
   3   6  12  108.20    5.75
   3   6  12  105.60    7.12
   3   6  13   42.67    2.76
   3   6  13   37.44    3.73
   3   6  13   43.47    2.72
   3   6  13   40.52    3.13
   3   6  14   12.79    1.30
   3   6  14   15.00    2.22
   3   6  14   15.48    1.83
   3   6  14   14.88    1.35
   3   6  15    0.44    0.86
   3   6  15    0.60    0.48
   3   6  15   -0.07    0.50
   3   6  15    0.23    0.93
   3   6  16   12.08    1.72
   3   6  17   46.61    3.56
   3   6  18   18.83    1.55
   3   6  18   16.24    2.05
   3   6  19   28.89    2.05
   3   6  19   30.50    2.17
   3   6  19   26.07    2.53
   3   6  20    4.97    0.71
   3   6  20    2.78    0.68
   3   6  20    3.82    1.07
   3   6  21   -0.09    0.40
   3   6  21   -0.10    0.45
   3   6  21   -0.08    0.74
   3   6  22   32.09    2.07
   3   6  22   35.78    2.14
   3   6  22   34.21    2.44
   3   6  23    0.09    0.47
   3   6  23    0.52    0.41
   3   6  23    0.48    0.29
   3   6  23    0.35    0.26
   3   7 -17    1.61    0.36
   3   7 -16    2.53    0.51
   3   7 -15   14.98    1.23
   3   7 -15   17.54    1.34
   3   7 -14   18.27    1.51
   3   7 -14   16.24    1.30
   3   7 -14   17.69    1.43
   3   7 -13    8.36    1.00
   3   7 -13    8.74    0.94
   3   7 -12   26.45    1.91
   3   7 -12   30.31    2.25
   3   7 -12   29.31    2.11
   3   7 -12   31.10    2.09
   3   7 -11    5.94    1.37
   3   7 -11    6.58    0.79
   3   7 -11    7.75    1.02
   3   7 -11    6.68    0.87
   3   7 -11    7.64    0.94
   3   7 -10   13.19    1.21
   3   7 -10   12.50    1.28
   3   7 -10   15.02    1.37
   3   7 -10   13.85    1.54
   3   7 -10   14.95    1.42
   3   7 -10   15.95    1.34
   3   7  -9   45.26    2.83
   3   7  -9   43.96    2.87
   3   7  -9   47.63    2.93
   3   7  -9   39.82    2.90
   3   7  -9   46.77    2.95
   3   7  -9   45.88    2.93
   3   7  -9   44.26    2.91
   3   7  -8   53.33    3.49
   3   7  -8   49.95    3.40
   3   7  -8   57.78    3.36
   3   7  -8   49.95    3.30
   3   7  -8   57.55    3.38
   3   7  -8   54.62    3.46
   3   7  -8   51.67    3.32
   3   7  -8   53.69    3.27
   3   7  -8   56.43    3.39
   3   7  -7   64.25    3.78
   3   7  -7   66.89    3.78
   3   7  -7   65.13    3.82
   3   7  -7   65.91    3.83
   3   7  -7   65.31    3.80
   3   7  -7   62.40    3.94
   3   7  -7   62.97    3.87
   3   7  -7   61.29    3.78
   3   7  -7   64.13    3.98
   3   7  -7   57.61    3.71
   3   7  -6    5.29    0.77
   3   7  -6    6.57    1.02
   3   7  -6    7.94    0.94
   3   7  -6    6.23    0.85
   3   7  -6    7.32    1.02
   3   7  -6    7.29    0.94
   3   7  -6    6.46    0.87
   3   7  -6    6.20    0.84
   3   7  -6    5.89    0.81
   3   7  -5   14.02    1.25
   3   7  -5   14.42    1.25
   3   7  -5   13.23    1.40
   3   7  -5   14.38    1.32
   3   7  -5   13.66    1.25
   3   7  -5   16.35    1.50
   3   7  -5   13.57    1.21
   3   7  -4   19.84    1.80
   3   7  -4   22.39    1.65
   3   7  -4   23.45    1.66
   3   7  -4   16.96    2.33
   3   7  -4   21.81    1.69
   3   7  -4   22.34    1.83
   3   7  -4   23.77    1.68
   3   7  -3    3.73    0.59
   3   7  -3    3.94    0.81
   3   7  -3    3.98    0.62
   3   7  -3    5.05    1.42
   3   7  -3    4.21    0.66
   3   7  -3    4.21    0.90
   3   7  -3    3.46    1.09
   3   7  -3    3.82    0.65
   3   7  -2   99.90    5.35
   3   7  -2   97.70    5.34
   3   7  -2  106.96    7.19
   3   7  -2   96.91    6.76
   3   7  -2  101.91    5.62
   3   7  -2  101.53    5.41
   3   7  -2   93.09    5.35
   3   7  -2  100.01    5.76
   3   7  -1   33.10    3.42
   3   7  -1   31.24    3.13
   3   7  -1   30.70    2.02
   3   7   0   71.30    5.19
   3   7   0   61.21    3.53
   3   7   0   58.33    4.80
   3   7   1    0.65    0.41
   3   7   1    2.23    1.22
   3   7   1    2.08    0.96
   3   7   2   88.10    6.25
   3   7   3   91.72    5.10
   3   7   3  108.82    6.74
   3   7   4   60.69    4.53
   3   7   4   58.88    4.46
   3   7   4   51.15    3.11
   3   7   5   72.24    5.45
   3   7   5   73.84    4.20
   3   7   6  169.97    9.66
   3   7   6  154.05    8.12
   3   7   6  153.10    9.55
   3   7   7    0.19    0.31
   3   7   7    0.19    0.87
   3   7   8   14.26    1.24
   3   7   8   12.81    1.14
   3   7   8   14.15    2.00
   3   7   8   13.93    1.50
   3   7   9   11.51    1.10
   3   7   9    8.43    1.65
   3   7   9    9.79    1.72
   3   7   9   10.22    1.32
   3   7  10   99.72    5.36
   3   7  10  100.31    5.66
   3   7  10   90.22    6.49
   3   7  10   87.88    5.33
   3   7  10   92.30    5.18
   3   7  11   24.82    1.88
   3   7  11   21.55    2.68
   3   7  11   23.74    1.91
   3   7  11   26.93    1.79
   3   7  12   11.77    1.16
   3   7  12    7.63    1.05
   3   7  12   10.44    1.72
   3   7  12    9.24    1.00
   3   7  13    0.21    0.71
   3   7  13   -0.42    0.54
   3   7  13    0.49    0.45
   3   7  14    7.13    0.98
   3   7  14    8.13    0.97
   3   7  14    6.08    1.54
   3   7  15   25.47    2.00
   3   7  15   25.81    1.95
   3   7  16   34.32    2.41
   3   7  17   42.72    2.84
   3   7  18   -0.39    0.48
   3   7  18   -0.07    0.51
   3   7  19    1.37    0.48
   3   7  20    8.49    0.90
   3   7  21    0.97    0.40
   3   7  22   37.60    2.64
   3   7  22   44.89    2.51
   3   7  22   41.13    2.37
   3   7  23    2.87    0.39
   3   7  23    0.64    0.43
   3   8 -16    4.81    0.54
   3   8 -15    0.28    0.35
   3   8 -14    6.13    0.75
   3   8 -14    5.52    0.75
   3   8 -13   15.83    1.37
   3   8 -13   15.88    1.29
   3   8 -12    0.48    0.43
   3   8 -12    0.87    0.56
   3   8 -12    0.13    0.37
   3   8 -11    0.49    0.37
   3   8 -11    1.65    0.62
   3   8 -11    1.08    0.48
   3   8 -11    0.06    0.48
   3   8 -10   15.38    1.41
   3   8 -10   15.34    1.32
   3   8 -10   14.83    2.14
   3   8 -10   15.61    1.45
   3   8 -10   17.31    1.42
   3   8  -9    8.66    0.99
   3   8  -9    8.05    1.07
   3   8  -9    9.55    1.08
   3   8  -9   10.11    1.37
   3   8  -9   10.43    1.11
   3   8  -8    5.27    0.98
   3   8  -8    5.54    0.84
   3   8  -8    5.06    0.82
   3   8  -8    3.83    0.82
   3   8  -8    5.13    0.90
   3   8  -8    5.47    0.83
   3   8  -7   67.02    3.93
   3   8  -7   68.05    3.99
   3   8  -7   64.25    4.09
   3   8  -7   62.55    4.04
   3   8  -7   65.06    3.96
   3   8  -7   64.87    3.93
   3   8  -6   91.54    5.70
   3   8  -6  108.37    5.61
   3   8  -6   95.72    5.70
   3   8  -6  102.72    5.64
   3   8  -6   99.51    5.55
   3   8  -6   97.65    5.66
   3   8  -6   96.98    5.56
   3   8  -5    1.02    0.42
   3   8  -5    0.49    0.65
   3   8  -5    1.17    0.59
   3   8  -5    0.08    0.66
   3   8  -5    0.95    0.54
   3   8  -5    0.76    0.49
   3   8  -5    0.06    0.58
   3   8  -5    1.36    0.61
   3   8  -5    0.69    0.51
   3   8  -4   20.36    1.75
   3   8  -4   24.23    1.80
   3   8  -4   20.48    1.90
   3   8  -4   23.15    1.73
   3   8  -4   22.73    2.80
   3   8  -4   22.15    1.94
   3   8  -4   20.64    1.64
   3   8  -4   24.06    1.80
   3   8  -4   23.09    1.74
   3   8  -3   52.15    3.38
   3   8  -3   50.82    4.52
   3   8  -3   52.84    3.14
   3   8  -3   53.89    3.21
   3   8  -3   48.77    3.16
   3   8  -3   48.86    3.12
   3   8  -3   46.92    3.04
   3   8  -2    4.63    0.68
   3   8  -2    4.38    0.93
   3   8  -2    2.99    0.65
   3   8  -2    3.31    0.64
   3   8  -2    4.40    1.50
   3   8  -2    4.03    0.70
   3   8  -2    3.87    0.63
   3   8  -2    3.74    0.67
   3   8  -2    3.90    0.72
   3   8  -2    2.09    1.14
   3   8  -2    3.98    0.94
   3   8  -1   36.28    2.61
   3   8  -1   35.31    2.29
   3   8  -1   35.09    2.36
   3   8  -1   36.57    2.37
   3   8  -1   42.10    3.99
   3   8  -1   35.48    2.28
   3   8  -1   35.29    3.61
   3   8  -1   33.62    2.39
   3   8  -1   31.74    2.29
   3   8  -1   36.01    2.61
   3   8  -1   36.10    2.70
   3   8  -1   35.90    2.33
   3   8   0    2.13    0.55
   3   8   0    2.44    1.24
   3   8   0    1.87    0.50
   3   8   0    1.52    0.56
   3   8   0    2.55    0.82
   3   8   0    2.31    0.51
   3   8   0    2.25    0.58
   3   8   0    1.15    1.04
   3   8   0    2.81    0.91
   3   8   1    1.11    0.48
   3   8   1    2.13    1.20
   3   8   1    0.86    0.43
   3   8   1    0.50    0.70
   3   8   1    1.71    0.53
   3   8   1    0.19    0.45
   3   8   1    0.85    0.42
   3   8   1    1.36    1.07
   3   8   1    0.88    0.69
   3   8   2   41.33    2.43
   3   8   2   38.82    3.85
   3   8   2   39.46    2.42
   3   8   2   43.39    2.94
   3   8   2   36.98    2.50
   3   8   2   39.56    2.80
   3   8   2   36.73    2.51
   3   8   2   41.23    2.96
   3   8   2   36.38    2.55
   3   8   3   24.88    2.89
   3   8   3   21.22    1.61
   3   8   3   25.88    2.07
   3   8   3   21.39    1.89
   3   8   3   24.73    2.05
   3   8   3   19.21    1.57
   3   8   3   19.66    1.66
   3   8   4   94.73    5.37
   3   8   4   97.40    6.56
   3   8   4   95.74    5.22
   3   8   4  102.16    6.68
   3   8   4   93.24    5.36
   3   8   4   84.47    4.86
   3   8   5    2.29    0.53
   3   8   5    1.16    0.48
   3   8   5    2.78    1.09
   3   8   5    1.74    0.96
   3   8   5    4.03    0.79
   3   8   5    1.67    0.82
   3   8   6    9.76    1.07
   3   8   6    9.06    1.83
   3   8   6   10.15    1.22
   3   8   6   12.44    1.44
   3   8   6   10.02    1.83
   3   8   6   10.85    1.04
   3   8   7   90.93    6.64
   3   8   7   93.73    5.19
   3   8   7  101.81    5.58
   3   8   7   86.05    5.05
   3   8   7  103.64    6.77
   3   8   7   88.96    5.32
   3   8   8   37.17    3.51
   3   8   8   33.16    3.46
   3   8   8   30.80    2.40
   3   8   8   33.96    2.61
   3   8   8   34.31    2.22
   3   8   9  146.54    7.49
   3   8   9  149.02    9.02
   3   8   9  128.36    8.90
   3   8   9  130.32    7.53
   3   8   9  139.60    7.78
   3   8   9  136.41    7.32
   3   8  10   15.47    1.39
   3   8  10   13.38    1.62
   3   8  10   16.76    2.28
   3   8  10   14.04    1.46
   3   8  10   15.25    2.22
   3   8  10   13.49    1.17
   3   8  10   15.01    1.26
   3   8  11   21.83    1.74
   3   8  11   24.02    2.11
   3   8  11   21.42    2.62
   3   8  11   18.82    1.74
   3   8  11   19.18    1.50
   3   8  11   16.32    2.38
   3   8  12   14.74    1.42
   3   8  12   10.81    1.92
   3   8  12   13.00    1.40
   3   8  12   15.11    1.27
   3   8  13   37.84    2.50
   3   8  13   30.83    2.40
   3   8  13   34.52    2.29
   3   8  13   33.35    2.77
   3   8  14   19.02    1.70
   3   8  14   16.32    1.94
   3   8  14   17.84    1.66
   3   8  15   40.10    2.79
   3   8  15   37.76    3.12
   3   8  15   41.91    2.67
   3   8  16   68.43    4.36
   3   8  16   75.99    4.34
   3   8  16   79.49    4.88
   3   8  17   -0.15    0.33
   3   8  17    0.13    0.50
   3   8  17    0.95    0.93
   3   8  18    1.22    0.45
   3   8  18    2.40    0.61
   3   8  18    2.55    1.02
   3   8  19    7.46    0.82
   3   8  19    9.61    1.00
   3   8  19    6.68    1.26
   3   8  20   28.45    1.84
   3   8  20   31.30    2.34
   3   8  20   29.59    2.00
   3   8  21   14.60    1.09
   3   8  21   17.36    1.27
   3   8  21   15.95    1.48
   3   8  21   14.94    1.49
   3   8  22    5.07    0.58
   3   8  22    4.95    0.75
   3   8  22    3.79    0.74
   3   9 -15    0.50    0.24
   3   9 -14    1.63    0.41
   3   9 -13    1.93    0.53
   3   9 -12   -0.04    0.56
   3   9 -12    0.11    0.49
   3   9 -12    0.57    0.48
   3   9 -11   49.72    2.85
   3   9 -11   42.78    2.69
   3   9 -11   41.48    2.70
   3   9 -10   -0.05    0.43
   3   9 -10    0.22    0.44
   3   9 -10    0.48    0.45
   3   9  -9    7.97    0.98
   3   9  -9    9.18    1.05
   3   9  -9    9.10    2.56
   3   9  -9   10.48    1.09
   3   9  -8    0.70    0.52
   3   9  -8    2.35    2.11
   3   9  -8    0.65    0.56
   3   9  -8    0.98    0.61
   3   9  -8    1.82    0.62
   3   9  -7   33.04    2.96
   3   9  -7   34.48    2.64
   3   9  -7   35.90    2.51
   3   9  -7   36.69    2.66
   3   9  -7   38.87    2.57
   3   9  -7   35.34    2.49
   3   9  -7   39.72    2.58
   3   9  -6   32.75    2.52
   3   9  -6   33.33    2.34
   3   9  -6   33.41    2.37
   3   9  -6   29.12    2.54
   3   9  -6   32.91    2.37
   3   9  -6   30.19    2.45
   3   9  -6   35.13    2.35
   3   9  -5    6.29    0.84
   3   9  -5    8.30    1.01
   3   9  -5    7.41    1.17
   3   9  -5    8.88    1.21
   3   9  -5    9.21    1.27
   3   9  -5    9.73    1.12
   3   9  -5    7.76    1.08
   3   9  -5    8.71    1.06
   3   9  -4   37.76    4.01
   3   9  -4   39.05    2.93
   3   9  -4   39.69    2.94
   3   9  -4   41.04    2.81
   3   9  -4   43.40    2.86
   3   9  -4   39.42    2.70
   3   9  -4   37.01    2.60
   3   9  -4   45.56    2.83
   3   9  -3    3.66    0.69
   3   9  -3    2.81    0.73
   3   9  -3    4.08    1.02
   3   9  -3    2.94    0.73
   3   9  -3    3.96    0.72
   3   9  -3    3.30    0.74
   3   9  -3    4.60    0.86
   3   9  -3    3.42    1.26
   3   9  -3    3.98    0.96
   3   9  -2    2.71    0.65
   3   9  -2    4.52    0.82
   3   9  -2    2.86    0.68
   3   9  -2    2.30    0.68
   3   9  -2    3.27    0.67
   3   9  -2    3.82    0.95
   3   9  -2    3.19    0.67
   3   9  -2    2.69    1.22
   3   9  -2    2.07    0.67
   3   9  -1   11.12    1.10
   3   9  -1    7.73    1.11
   3   9  -1    9.55    1.12
   3   9  -1   11.12    1.19
   3   9  -1   12.94    2.31
   3   9  -1   10.78    1.06
   3   9  -1   10.16    1.16
   3   9  -1   11.23    1.42
   3   9  -1   11.58    2.21
   3   9  -1    9.44    1.42
   3   9  -1   11.22    1.16
   3   9   0   19.73    1.90
   3   9   0   19.31    1.53
   3   9   0   18.41    2.93
   3   9   0   19.49    1.55
   3   9   0   21.83    1.96
   3   9   0   21.29    1.74
   3   9   0   19.71    1.65
   3   9   0   20.57    2.89
   3   9   0   16.54    1.91
   3   9   0   19.57    1.62
   3   9   1  114.64    6.27
   3   9   1   99.12    5.69
   3   9   1   96.98    7.54
   3   9   1  103.42    5.92
   3   9   1  107.43    7.76
   3   9   1  106.53    6.29
   3   9   1  106.79    5.70
   3   9   1  103.99    5.80
   3   9   2  142.04    7.31
   3   9   2  137.47    7.29
   3   9   2  129.96    7.48
   3   9   2  134.54    7.82
   3   9   2  138.20    7.56
   3   9   2  146.05    9.45
   3   9   2  142.13    7.90
   3   9   3   22.32    2.24
   3   9   3   25.10    1.73
   3   9   3   25.88    2.26
   3   9   3   24.84    3.17
   3   9   3   24.18    1.97
   3   9   3   26.66    2.18
   3   9   3   21.40    2.30
   3   9   3   26.06    2.29
   3   9   3   21.75    1.81
   3   9   3   26.13    1.77
   3   9   4    8.68    1.01
   3   9   4    8.87    0.88
   3   9   4    8.62    1.86
   3   9   4    7.64    0.89
   3   9   4    6.98    1.78
   3   9   4    9.08    1.29
   3   9   4    9.99    1.42
   3   9   4    8.02    1.04
   3   9   4   13.42    2.13
   3   9   4    8.88    1.39
   3   9   4    7.91    0.99
   3   9   5    2.25    0.56
   3   9   5    1.56    0.60
   3   9   5    2.28    0.50
   3   9   5    3.11    1.00
   3   9   5    2.31    0.54
   3   9   5    1.20    0.78
   3   9   5    3.01    1.25
   3   9   5    2.28    0.88
   3   9   5    2.17    1.22
   3   9   5    5.09    1.77
   3   9   6   33.47    3.59
   3   9   6   31.93    2.68
   3   9   6   34.52    2.41
   3   9   6   32.74    2.30
   3   9   6   34.63    3.71
   3   9   6   37.79    2.66
   3   9   6   37.39    2.80
   3   9   7   70.34    4.17
   3   9   7   69.87    5.60
   3   9   7   75.11    4.58
   3   9   7   58.52    5.47
   3   9   7   71.00    4.39
   3   9   7   72.26    4.55
   3   9   7   67.98    4.06
   3   9   8   61.18    3.73
   3   9   8   59.68    5.05
   3   9   8   58.49    5.25
   3   9   8   60.22    3.89
   3   9   8   62.62    3.64
   3   9   8   58.59    4.02
   3   9   9   65.55    5.46
   3   9   9   67.31    5.66
   3   9   9   68.47    4.27
   3   9   9   67.40    4.46
   3   9   9   69.85    4.01
   3   9  10   36.01    3.71
   3   9  10   32.34    2.37
   3   9  10   31.70    3.44
   3   9  10   35.67    2.53
   3   9  10   32.03    2.22
   3   9  10   28.89    2.61
   3   9  11    0.06    0.42
   3   9  11    0.82    0.60
   3   9  11    0.48    1.02
   3   9  11   -0.56    0.76
   3   9  11    0.05    0.32
   3   9  11   -0.51    0.92
   3   9  12   64.77    3.72
   3   9  12   52.11    3.65
   3   9  12   56.57    3.37
   3   9  12   57.56    3.92
   3   9  13    7.69    1.08
   3   9  13    7.03    1.12
   3   9  13    7.48    0.87
   3   9  13    8.44    1.39
   3   9  14   78.60    4.51
   3   9  14   64.21    4.38
   3   9  14   73.10    4.81
   3   9  14   78.69    4.27
   3   9  15   19.79    1.70
   3   9  15   20.97    1.54
   3   9  15   21.30    2.06
   3   9  16   13.42    1.35
   3   9  16   12.15    1.16
   3   9  16   10.75    1.57
   3   9  17    2.50    0.57
   3   9  17    2.57    1.00
   3   9  18    0.52    0.44
   3   9  18    0.95    0.76
   3   9  19    8.62    1.24
   3   9  19    7.77    0.88
   3   9  19    9.31    1.21
   3   9  20   11.63    1.25
   3   9  20   10.74    0.95
   3   9  21    6.40    0.94
   3   9  21    7.75    0.73
   3   9  21    8.12    0.92
   3   9  22    0.86    0.42
   3   9  22    0.42    0.35
   3   9  22    1.29    0.28
   3  10 -13    0.03    0.29
   3  10 -12   18.35    1.38
   3  10 -11    8.39    0.83
   3  10 -11   10.33    1.02
   3  10 -11   10.69    1.65
   3  10 -10    3.85    0.64
   3  10 -10    5.14    1.29
   3  10 -10    4.06    0.60
   3  10  -9   -0.05    0.43
   3  10  -9    0.78    0.57
   3  10  -9   -0.36    0.48
   3  10  -9   -0.45    0.87
   3  10  -8    8.06    1.03
   3  10  -8    6.75    0.91
   3  10  -8    8.86    1.00
   3  10  -8    7.86    1.07
   3  10  -7   13.65    1.31
   3  10  -7   14.63    1.40
   3  10  -7   13.98    1.33
   3  10  -7   13.54    1.42
   3  10  -7   10.27    2.62
   3  10  -7   14.27    1.40
   3  10  -6   15.77    3.06
   3  10  -6   12.92    1.31
   3  10  -6   15.78    1.44
   3  10  -6   13.89    1.38
   3  10  -6   11.80    1.41
   3  10  -6   13.35    1.49
   3  10  -5  205.49   10.28
   3  10  -5  188.09   10.38
   3  10  -5  203.24   10.26
   3  10  -5  204.68   10.49
   3  10  -5  176.02   10.02
   3  10  -5  202.19   10.35
   3  10  -5  189.78   10.66
   3  10  -4    4.91    0.77
   3  10  -4    4.96    0.91
   3  10  -4    2.89    0.97
   3  10  -4    2.12    0.92
   3  10  -4    4.72    0.95
   3  10  -4    4.83    0.93
   3  10  -4    5.12    0.84
   3  10  -4    4.95    2.58
   3  10  -3    0.26    0.46
   3  10  -3    0.81    0.56
   3  10  -3    2.23    2.42
   3  10  -3    0.58    0.57
   3  10  -3    0.29    0.84
   3  10  -3   -0.09    0.83
   3  10  -3    0.24    0.65
   3  10  -3    0.86    0.66
   3  10  -3   -0.83    0.81
   3  10  -2   18.70    1.78
   3  10  -2   20.84    1.60
   3  10  -2   19.74    1.62
   3  10  -2   20.34    1.98
   3  10  -2   20.37    1.79
   3  10  -2   17.94    2.68
   3  10  -2   16.51    2.75
   3  10  -2   16.81    1.57
   3  10  -1   14.23    1.51
   3  10  -1   13.66    1.29
   3  10  -1   12.08    2.54
   3  10  -1   15.89    1.72
   3  10  -1   13.83    2.45
   3  10  -1   12.23    1.23
   3  10  -1   13.76    1.34
   3  10  -1   13.32    1.65
   3  10   0   25.94    1.82
   3  10   0   23.85    1.81
   3  10   0   25.94    2.26
   3  10   0   20.81    1.96
   3  10   0   24.12    2.37
   3  10   0   19.77    2.98
   3  10   0   22.56    2.20
   3  10   0   25.25    1.92
   3  10   1   24.76    1.81
   3  10   1   24.67    1.82
   3  10   1   24.81    3.26
   3  10   1   23.80    3.23
   3  10   1   23.86    2.03
   3  10   1   26.19    2.73
   3  10   1   23.39    2.30
   3  10   1   23.63    2.26
   3  10   1   24.60    1.91
   3  10   2   14.71    1.28
   3  10   2   14.08    1.76
   3  10   2   15.27    2.83
   3  10   2   14.24    2.47
   3  10   2   13.29    1.49
   3  10   2   14.79    2.56
   3  10   2   18.43    1.40
   3  10   2   13.41    1.72
   3  10   2   14.69    1.40
   3  10   3   29.90    3.53
   3  10   3   26.60    1.90
   3  10   3   21.99    3.03
   3  10   3   25.62    2.16
   3  10   3   25.64    1.86
   3  10   3   30.67    2.52
   3  10   3   27.06    2.43
   3  10   4    2.58    0.72
   3  10   4    2.22    0.94
   3  10   4    3.55    0.71
   3  10   4    4.24    1.43
   3  10   4    2.58    0.56
   3  10   4    2.28    0.59
   3  10   4    4.33    1.14
   3  10   4    3.15    0.82
   3  10   4    2.11    1.75
   3  10   4    2.90    1.00
   3  10   5    9.77    1.15
   3  10   5   11.76    1.07
   3  10   5   13.69    1.66
   3  10   5   12.97    1.68
   3  10   5   11.33    2.13
   3  10   5   10.33    1.44
   3  10   5   10.59    1.06
   3  10   5    7.82    1.97
   3  10   5   12.26    1.21
   3  10   6   79.19    4.73
   3  10   6   79.75    4.50
   3  10   6   77.25    6.34
   3  10   6   85.04    5.21
   3  10   6   65.49    6.20
   3  10   6   86.38    5.05
   3  10   6   82.03    5.21
   3  10   6   83.30    4.72
   3  10   7   15.58    1.50
   3  10   7   16.76    1.88
   3  10   7   17.57    1.77
   3  10   7   14.76    2.37
   3  10   7   17.04    2.62
   3  10   7   17.68    1.91
   3  10   7   15.83    1.44
   3  10   8   20.41    1.79
   3  10   8   23.96    2.25
   3  10   8   20.00    1.99
   3  10   8   19.97    2.84
   3  10   8   17.78    2.73
   3  10   8   20.05    2.12
   3  10   8   22.95    1.73
   3  10   9   24.51    2.01
   3  10   9   25.64    2.34
   3  10   9   25.52    3.24
   3  10   9   24.19    2.18
   3  10   9   25.64    2.32
   3  10   9   26.59    1.93
   3  10  10    2.22    0.60
   3  10  10    2.68    1.01
   3  10  10    1.04    0.82
   3  10  10    2.40    1.27
   3  10  10    1.66    0.95
   3  10  11   33.75    2.37
   3  10  11   29.24    2.41
   3  10  11   31.67    2.65
   3  10  11   33.27    2.21
   3  10  12    5.08    0.74
   3  10  12    6.09    0.96
   3  10  12    4.66    0.99
   3  10  12    5.98    1.20
   3  10  13   17.68    1.83
   3  10  13   16.19    1.54
   3  10  13   16.67    1.62
   3  10  13   14.10    1.21
   3  10  14   15.34    1.50
   3  10  14   15.72    1.25
   3  10  14   12.84    1.44
   3  10  14   15.68    1.77
   3  10  15    4.24    0.87
   3  10  15    4.34    0.86
   3  10  15    4.24    0.65
   3  10  15    6.05    1.15
   3  10  16    0.32    0.34
   3  10  16    0.40    0.51
   3  10  16    0.99    0.74
   3  10  17    4.19    1.06
   3  10  17    4.80    0.66
   3  10  17    4.57    1.03
   3  10  18   42.32    2.86
   3  10  18   38.62    2.36
   3  10  18   37.02    2.73
   3  10  19    5.57    1.02
   3  10  19    6.75    0.69
   3  10  19    6.63    0.95
   3  10  20    2.49    0.69
   3  10  20    2.50    0.41
   3  10  20    1.64    0.59
   3  10  21    0.99    0.42
   3  10  21    0.58    0.34
   3  11 -11    4.77    0.60
   3  11 -10    0.86    0.46
   3  11  -9   20.23    1.46
   3  11  -9   22.74    1.53
   3  11  -8    0.64    0.48
   3  11  -8    0.46    0.40
   3  11  -7   22.56    1.59
   3  11  -7   20.69    2.58
   3  11  -7   15.36    1.47
   3  11  -6   21.09    1.65
   3  11  -6   19.63    1.74
   3  11  -6   24.35    2.64
   3  11  -5   59.84    3.31
   3  11  -5   52.09    3.46
   3  11  -5   55.36    3.94
   3  11  -4    2.75    0.64
   3  11  -4    4.40    2.29
   3  11  -4    5.24    0.99
   3  11  -4    2.84    0.73
   3  11  -4    4.16    0.98
   3  11  -3    0.37    0.48
   3  11  -3   -0.26    0.57
   3  11  -3   -0.08    0.79
   3  11  -3    0.09    0.66
   3  11  -3   -0.79    2.28
   3  11  -3   -0.06    0.50
   3  11  -3    0.09    0.75
   3  11  -3    0.70    2.40
   3  11  -2   28.19    3.23
   3  11  -2   27.20    2.02
   3  11  -2   28.14    2.29
   3  11  -2   31.03    2.11
   3  11  -2   24.50    3.23
   3  11  -2   24.91    2.22
   3  11  -2   26.83    2.37
   3  11  -2   26.84    2.04
   3  11  -1    9.49    1.41
   3  11  -1    8.90    1.06
   3  11  -1    9.95    2.73
   3  11  -1    9.06    1.04
   3  11  -1    9.76    1.26
   3  11  -1   11.95    3.03
   3  11  -1    8.27    1.96
   3  11  -1    9.04    1.10
   3  11   0   18.24    1.58
   3  11   0   18.50    1.82
   3  11   0   21.83    2.07
   3  11   0   18.39    2.84
   3  11   0   21.21    2.89
   3  11   0   20.01    1.69
   3  11   0   19.10    1.58
   3  11   1   27.96    3.80
   3  11   1   37.37    2.42
   3  11   1   35.99    2.73
   3  11   1   36.47    2.41
   3  11   1   37.54    2.90
   3  11   1   28.47    2.70
   3  11   1   39.29    2.57
   3  11   2    0.72    0.56
   3  11   2    1.82    0.51
   3  11   2    0.42    0.87
   3  11   2    0.82    0.50
   3  11   2    1.60    0.69
   3  11   2    0.30    0.99
   3  11   2    0.52    0.79
   3  11   3   18.56    2.03
   3  11   3   19.99    1.55
   3  11   3   21.09    2.13
   3  11   3   18.16    1.51
   3  11   3   18.52    1.86
   3  11   4    7.81    1.01
   3  11   4    7.02    1.30
   3  11   4    6.01    1.26
   3  11   4    6.58    0.82
   3  11   4    5.85    0.80
   3  11   4    5.55    1.60
   3  11   4    5.82    1.28
   3  11   5   42.49    3.30
   3  11   5   41.88    2.66
   3  11   5   37.61    4.19
   3  11   5   34.58    4.18
   3  11   5   47.72    3.27
   3  11   5   41.29    3.24
   3  11   5   47.23    2.91
   3  11   6    8.25    0.88
   3  11   6    4.00    1.49
   3  11   6    9.26    1.32
   3  11   6    7.00    1.85
   3  11   6    7.43    1.36
   3  11   6    8.47    1.41
   3  11   6    8.51    1.04
   3  11   6    7.22    0.99
   3  11   7   28.67    2.19
   3  11   7   33.35    2.67
   3  11   7   29.84    2.46
   3  11   7   23.36    3.30
   3  11   7   25.14    2.50
   3  11   7   30.78    2.17
   3  11   8  114.09    6.61
   3  11   8  102.04    8.37
   3  11   8  117.89    6.99
   3  11   8  130.52    6.94
   3  11   8  123.91    6.58
   3  11   8  116.98    6.99
   3  11   9   40.54    2.74
   3  11   9   36.83    2.99
   3  11   9   33.19    3.93
   3  11   9   39.88    3.04
   3  11   9   38.22    2.88
   3  11   9   38.95    2.61
   3  11  10    3.43    0.70
   3  11  10    4.35    0.80
   3  11  10    2.54    1.05
   3  11  10    3.32    0.94
   3  11  10    2.97    1.16
   3  11  10    3.03    1.04
   3  11  11    5.66    0.82
   3  11  11    5.30    1.22
   3  11  11    5.71    1.05
   3  11  11    7.32    1.22
   3  11  12    0.99    0.48
   3  11  12    0.88    0.92
   3  11  12    0.16    0.70
   3  11  12    1.64    0.83
   3  11  13   10.68    1.24
   3  11  13    8.90    1.38
   3  11  13    9.89    1.50
   3  11  13   10.79    1.26
   3  11  14   12.36    1.53
   3  11  14   10.01    1.20
   3  11  14    8.87    1.36
   3  11  14    8.82    1.15
   3  11  15    0.98    0.84
   3  11  15    1.26    0.61
   3  11  16    2.95    0.64
   3  11  16    3.60    0.90
   3  11  17    7.89    1.10
   3  11  18    7.31    0.99
   3  11  19    0.39    0.43
   3  12 -10    0.93    0.27
   3  12  -9   26.22    1.59
   3  12  -9   30.56    1.82
   3  12  -8   33.99    2.02
   3  12  -7    2.15    0.48
   3  12  -6   11.57    1.04
   3  12  -6   10.75    1.00
   3  12  -5    6.96    0.81
   3  12  -5    4.57    0.84
   3  12  -4    0.93    0.56
   3  12  -4   -0.10    0.45
   3  12  -4    1.06    0.66
   3  12  -3   12.02    1.15
   3  12  -3   10.58    1.24
   3  12  -3   11.12    1.35
   3  12  -3   11.44    1.12
   3  12  -3   11.51    1.09
   3  12  -2    0.96    0.52
   3  12  -2    0.07    0.69
   3  12  -2    0.93    0.52
   3  12  -2    0.58    0.81
   3  12  -2    1.44    0.71
   3  12  -2    1.02    0.52
   3  12  -1   22.56    1.66
   3  12  -1   22.25    1.64
   3  12  -1   21.55    1.97
   3  12  -1   20.50    1.89
   3  12  -1   16.18    1.78
   3  12  -1   20.87    1.67
   3  12   0   10.76    1.40
   3  12   0   13.38    1.22
   3  12   0   12.86    1.18
   3  12   0   11.59    1.44
   3  12   0   12.71    1.54
   3  12   0   11.87    1.23
   3  12   1   -0.13    0.52
   3  12   1    0.61    0.49
   3  12   1    1.04    0.80
   3  12   1    0.74    0.47
   3  12   1    0.76    0.63
   3  12   2    1.02    0.59
   3  12   2    1.72    0.54
   3  12   2    0.86    0.85
   3  12   2    1.63    0.54
   3  12   3   24.11    1.67
   3  12   3   19.95    1.59
   3  12   3   18.85    1.94
   3  12   4   21.30    1.56
   3  12   4   20.14    2.01
   3  12   4   16.38    1.88
   3  12   4   20.77    1.72
   3  12   5    2.38    0.71
   3  12   5    1.84    0.94
   3  12   5    2.42    0.91
   3  12   5    2.53    0.53
   3  12   5    1.59    0.91
   3  12   6   47.62    3.47
   3  12   6   47.79    2.89
   3  12   6   50.82    3.45
   3  12   6   40.24    3.34
   3  12   6   55.01    3.19
   3  12   7   21.70    1.71
   3  12   7   19.88    2.02
   3  12   7   20.41    1.98
   3  12   7   18.31    1.91
   3  12   8    1.86    0.61
   3  12   8    1.57    0.88
   3  12   8    1.93    0.90
   3  12   8    0.95    0.94
   3  12   9    3.89    0.72
   3  12   9    4.06    1.01
   3  12   9    4.06    1.04
   3  12   9    1.87    0.99
   3  12  10   17.59    1.89
   3  12  10   20.38    1.83
   3  12  10   17.38    1.85
   3  12  10   21.54    1.63
   3  12  11    6.09    0.80
   3  12  11    5.31    1.03
   3  12  11    4.54    1.15
   3  12  11    6.76    1.12
   3  12  12   13.42    1.56
   3  12  12   14.94    1.45
   3  12  12    9.63    1.39
   3  12  12   13.30    1.15
   3  12  13    0.81    0.84
   3  12  13    0.85    0.70
   3  12  13    0.75    0.68
   3  12  14   12.03    1.25
   3  12  14   12.43    1.39
   3  12  14   13.36    1.52
   3  12  15    3.22    0.87
   3  12  15    3.20    0.66
   3  12  15    1.33    0.66
   3  12  16   14.57    1.32
   3  12  16   15.84    1.47
   3  12  16   13.19    1.15
   3  12  17    1.32    0.63
   3  12  18    4.18    0.71
   3  12  19    0.88    0.33
   3  13  -7    0.34    0.23
   3  13  -6   11.13    0.86
   3  13  -4    0.64    0.40
   3  13  -4    1.36    0.42
   3  13  -3   49.23    2.67
   3  13  -3   47.54    2.65
   3  13  -2    2.54    0.54
   3  13  -2    2.95    0.75
   3  13  -2    3.42    0.63
   3  13  -2    3.68    0.57
   3  13  -1    0.83    0.43
   3  13  -1    1.13    0.46
   3  13  -1    0.86    0.73
   3  13  -1    0.64    0.46
   3  13   0    1.12    0.47
   3  13   0    0.79    0.65
   3  13   0    0.44    0.56
   3  13   0    1.03    0.46
   3  13   1    1.96    0.57
   3  13   1    2.45    0.72
   3  13   1    1.89    0.78
   3  13   1    2.32    0.54
   3  13   2    4.38    0.75
   3  13   2    4.45    0.97
   3  13   2    2.57    0.83
   3  13   2    4.45    0.67
   3  13   3   27.62    1.86
   3  13   3   26.81    2.21
   3  13   4    1.13    0.42
   3  13   5    2.25    0.65
   3  13   5    2.19    0.47
   3  13   6   -0.06    0.51
   3  13   6    1.38    0.78
   3  13   6    0.47    0.83
   3  13   6   -0.14    0.62
   3  13   7    0.29    0.46
   3  13   7    0.08    0.70
   3  13   7   -0.15    0.72
   3  13   7    0.47    0.59
   3  13   8   25.96    1.96
   3  13   8   23.61    1.67
   3  13   9    8.56    1.19
   3  13   9    9.62    1.20
   3  13   9    8.98    0.96
   3  13   9    6.42    1.02
   3  13  10   39.52    2.88
   3  13  10   41.03    2.84
   3  13  10   44.60    2.64
   3  13  11    2.70    0.55
   3  13  11    2.76    0.84
   3  13  11    3.06    0.77
   3  13  12    1.96    0.44
   3  13  12    1.17    0.62
   3  13  12    1.49    0.72
   3  13  13    1.02    0.65
   3  13  13    2.06    0.61
   3  13  14   12.72    1.18
   3  13  14   14.82    1.34
   3  13  15   15.19    1.34
   3  13  15   13.68    1.12
   3  13  16    2.04    0.55
   3  13  17    3.59    0.54
   3  14  -4    1.43    0.27
   3  14  -3   28.66    1.71
   3  14  -2    3.85    0.50
   3  14  -1    1.42    0.49
   3  14  -1    2.69    0.46
   3  14  -1    2.26    0.38
   3  14   0    1.02    0.37
   3  14   0    1.03    0.38
   3  14   0    0.45    0.48
   3  14   1    7.89    0.76
   3  14   1    8.56    0.98
   3  14   1    8.68    0.82
   3  14   2    7.90    0.73
   3  14   2    7.02    0.94
   3  14   2    6.81    0.78
   3  14   3    3.58    0.60
   3  14   3    3.20    0.49
   3  14   3    3.17    0.74
   3  14   4   -0.41    0.63
   3  14   4   -0.09    0.27
   3  14   5    2.49    0.55
   3  14   6    0.41    0.42
   3  14   7    8.44    1.13
   3  14   7   11.31    1.00
   3  14   8    3.60    0.59
   3  14   8    2.41    0.71
   3  14   9    8.08    0.99
   3  14   9    7.41    0.80
   3  14  10    1.34    0.40
   3  14  10    0.35    0.56
   3  14  11    2.66    0.42
   3  14  11    1.32    0.52
   3  14  11    1.32    0.60
   3  14  12    7.87    0.86
   3  14  12    6.21    0.79
   3  14  13    0.16    0.36
   3  14  13   -0.13    0.38
   3  14  14    3.34    0.48
   3  15   2    2.26    0.43
   3  15   2    2.89    0.37
   3  15   3    1.78    0.46
   3  15   3    2.59    0.40
   3  15   4   -0.39    0.41
   3  15   5    2.48    0.43
   3  15   5    2.10    0.52
   3  15   6   10.76    0.86
   3  15   7    3.01    0.44
   3  15   8    7.52    0.81
   3  15   8    8.34    0.70
   3  15   9    3.51    0.54
   3  15   9    2.56    0.37
   3  15  10    0.03    0.33
   3  15  11    4.30    0.54
  -4  12   6   -0.02    0.22
  -4  12   5    9.43    0.74
  -4  12   4    4.86    0.53
  -4  12   3    8.39    0.71
  -4  12   2    0.76    0.31
  -4  12   0    7.48    0.64
  -4  12  -1    1.70    0.31
  -4  11  11    7.87    0.66
  -4  11  10    4.93    0.52
  -4  11  10    3.15    0.53
  -4  11   9    3.61    0.49
  -4  11   9    3.45    0.53
  -4  11   8    0.25    0.25
  -4  11   8    0.03    0.27
  -4  11   7    1.28    0.36
  -4  11   7    1.37    0.36
   4 -11  -6    2.66    0.45
  -4  11   6    2.41    0.45
  -4  11   5    5.12    0.63
   4 -11  -5    4.97    0.65
  -4  11   4   34.83    2.11
   4 -11  -4   32.76    2.14
  -4  11   3    4.98    0.66
   4 -11  -2    0.05    0.32
  -4  11   2    0.33    0.35
  -4  11   2    0.02    0.25
  -4  11   1    1.04    0.31
   4 -11  -1    1.16    0.40
   4 -11   0   10.30    0.93
  -4  11   0    8.51    0.78
  -4  11   0    9.49    0.88
   4 -11   1   27.33    1.79
  -4  11  -1   26.07    1.65
  -4  11  -1   25.55    1.69
  -4  11  -2    7.11    0.70
  -4  11  -2    5.97    0.65
  -4  11  -2    7.24    0.68
   4 -11   2    5.95    0.73
  -4  11  -3    0.51    0.33
  -4  11  -3    1.23    0.36
  -4  11  -4    0.67    0.32
  -4  11  -5   10.31    0.81
  -4  11  -6    3.85    0.45
  -4  10  14    6.74    0.55
  -4  10  14    4.98    0.60
  -4  10  13    0.05    0.26
  -4  10  13    0.13    0.38
  -4  10  12   24.29    1.48
  -4  10  12   18.40    1.54
  -4  10  11    1.61    0.59
  -4  10  10    0.96    0.43
  -4  10  10    1.37    0.58
  -4  10   9    0.43    0.30
  -4  10   9    0.21    0.37
   4 -10  -9    0.04    0.29
  -4  10   9    0.05    0.53
  -4  10   8    0.72    0.41
   4 -10  -8    0.77    0.39
  -4  10   8    0.98    0.35
  -4  10   8    0.56    0.57
  -4  10   7   22.40    1.61
   4 -10  -7   21.73    1.61
  -4  10   7   21.17    1.76
  -4  10   7   24.63    1.60
  -4  10   6   12.20    1.02
  -4  10   6   10.37    0.97
  -4  10   6    9.15    1.10
   4 -10  -6    9.66    1.00
  -4  10   5   14.17    1.17
  -4  10   5   15.38    1.23
   4 -10  -5   14.32    1.27
  -4  10   4    4.74    0.63
  -4  10   4    6.23    0.77
   4 -10  -4    4.31    0.73
  -4  10   3    0.20    0.32
  -4  10   3    0.26    0.43
  -4  10   2   15.07    1.19
  -4  10   2   17.76    1.38
  -4  10   1   71.11    3.94
   4 -10   0    4.66    0.74
  -4  10   0    5.65    0.69
   4 -10   1   20.09    1.62
  -4  10  -1   21.92    1.53
  -4  10  -1   22.80    1.60
  -4  10  -2    2.02    0.51
   4 -10   2    1.67    0.51
  -4  10  -2    2.32    0.50
  -4  10  -3    0.31    0.35
   4 -10   3    0.99    0.41
  -4  10  -3    0.62    0.31
  -4  10  -3   -0.22    0.44
  -4  10  -4    8.87    0.88
   4 -10   4    8.93    0.89
  -4  10  -4    8.72    0.85
  -4  10  -4    9.61    0.83
  -4  10  -5   25.42    1.66
   4 -10   5   23.63    1.69
  -4  10  -5   26.89    1.68
  -4  10  -5   29.56    1.78
  -4  10  -6   33.33    2.01
  -4  10  -6   30.93    1.94
  -4  10  -7   24.79    1.57
  -4  10  -8    5.18    0.57
  -4  10  -9    7.66    0.66
  -4  10  -9    8.02    0.66
  -4  10 -10    7.26    0.58
  -4   9  15   16.11    1.07
  -4   9  15   15.28    1.01
  -4   9  14   16.28    1.10
  -4   9  14   13.44    1.02
  -4   9  13   23.07    1.44
  -4   9  13   17.21    1.30
  -4   9  12    5.13    0.68
  -4   9  12    4.41    0.57
  -4   9  11   18.81    1.36
  -4   9  11   14.61    1.20
  -4   9  10    3.05    0.54
  -4   9   9   50.23    2.90
   4  -9  -9   43.98    2.77
  -4   9   9   45.29    2.74
  -4   9   9   45.78    2.69
  -4   9   8   16.04    1.26
   4  -9  -8   13.47    1.26
  -4   9   8   15.95    1.26
  -4   9   7   32.04    2.09
  -4   9   7   30.29    1.97
  -4   9   7   26.51    1.89
   4  -9  -7   28.51    2.03
  -4   9   6    4.56    0.71
  -4   9   6    5.65    0.79
  -4   9   6    3.80    0.93
  -4   9   6    5.76    0.66
  -4   9   5    6.58    0.82
  -4   9   5    5.33    0.64
  -4   9   5    4.98    0.72
  -4   9   5    3.96    0.91
  -4   9   4   11.41    1.11
  -4   9   4   10.82    1.26
  -4   9   4   13.56    1.21
  -4   9   3   13.83    1.17
  -4   9   3   12.91    1.10
  -4   9   3   11.05    1.31
  -4   9   2   19.90    1.48
  -4   9   2   22.82    1.67
  -4   9   2   19.14    1.46
  -4   9   1   29.09    1.96
  -4   9   1   35.64    2.24
  -4   9   1   30.01    2.03
  -4   9   0   12.28    1.12
  -4   9  -1   38.28    2.45
  -4   9  -1   35.33    2.36
  -4   9  -2    0.34    0.41
  -4   9  -2    0.05    0.47
  -4   9  -2    0.18    0.36
  -4   9  -3   23.94    1.77
  -4   9  -3   25.26    1.73
  -4   9  -3   25.31    1.81
  -4   9  -4    2.97    0.62
  -4   9  -4    2.73    0.58
   4  -9   4    3.54    0.65
  -4   9  -4    2.12    0.53
  -4   9  -5   35.56    2.29
  -4   9  -5   35.25    2.22
  -4   9  -5   34.64    2.24
   4  -9   5   34.24    2.26
  -4   9  -6   12.24    1.06
  -4   9  -6   11.97    1.09
  -4   9  -6   12.51    1.00
   4  -9   6    9.16    0.95
  -4   9  -7    0.74    0.41
  -4   9  -8    0.09    0.39
  -4   9  -8    0.22    0.42
  -4   9  -9   13.99    1.10
  -4   9  -9   13.23    1.10
  -4   9 -10   38.40    2.30
  -4   9 -10   40.53    2.34
  -4   9 -11   13.82    1.00
  -4   9 -11   16.01    1.08
  -4   9 -12   17.29    1.12
  -4   8  17    1.04    0.34
  -4   8  17    0.83    0.22
  -4   8  16    2.44    0.37
  -4   8  16    3.22    0.42
  -4   8  15    8.31    0.76
  -4   8  15    7.84    0.75
  -4   8  14   19.93    1.41
  -4   8  14   19.05    1.39
  -4   8  13    4.75    0.70
  -4   8  13    5.35    0.71
  -4   8  12    1.37    0.51
  -4   8  12    1.19    0.49
  -4   8  11   -0.06    0.46
  -4   8  11    0.32    0.42
  -4   8  10   11.32    1.11
   4  -8 -10    8.91    0.89
  -4   8  10    9.63    1.01
  -4   8   9   13.30    1.10
  -4   8   9   12.97    1.21
   4  -8  -9   12.18    1.14
  -4   8   8   21.03    1.54
  -4   8   8   20.92    1.62
   4  -8  -8   20.25    1.63
   4  -8  -7   14.90    2.66
  -4   8   7   12.81    1.26
  -4   8   7   11.72    1.13
  -4   8   6    0.39    0.47
   4  -8  -6   -0.34    0.70
  -4   8   6   -0.24    0.75
  -4   8   6   -0.06    0.44
  -4   8   5   -0.36    1.17
  -4   8   5    0.26    0.45
   4  -8  -5    0.34    0.61
  -4   8   5   -0.06    0.42
  -4   8   5    1.76    0.94
   4  -8  -4    2.02    1.21
  -4   8   4    0.87    0.47
  -4   8   4    1.78    1.43
  -4   8   4    0.51    0.45
   4  -8  -4    0.89    0.48
  -4   8   4    2.07    1.00
  -4   8   3   16.85    1.41
  -4   8   3   14.39    1.53
  -4   8   3   21.56    2.82
   4  -8  -3   15.85    1.36
  -4   8   3   19.41    3.16
  -4   8   3   18.80    1.52
   4  -8  -3   18.53    2.90
  -4   8   2    1.33    0.48
  -4   8   2    3.13    1.57
  -4   8   2    1.12    0.54
  -4   8   2    1.48    0.68
   4  -8  -2    1.14    0.50
   4  -8  -2    0.96    0.94
  -4   8   2    1.06    1.06
  -4   8   1   12.51    1.25
  -4   8   1   11.74    1.09
   4  -8  -1   12.20    1.14
  -4   8   1   15.85    2.75
  -4   8   0   24.46    1.68
   4  -8   0   24.74    3.21
  -4   8   0   22.42    3.51
  -4   8  -1    6.02    2.13
  -4   8  -1    6.18    0.87
  -4   8  -1    6.67    0.76
  -4   8  -1    6.68    1.69
  -4   8  -2    4.61    1.72
  -4   8  -2    5.90    0.78
  -4   8  -2    5.47    0.80
  -4   8  -2    4.52    1.42
  -4   8  -3   19.16    1.52
  -4   8  -3   20.97    1.59
  -4   8  -3   20.63    3.04
  -4   8  -3   16.87    2.54
  -4   8  -4    0.69    0.44
  -4   8  -4    0.79    0.47
  -4   8  -4    0.95    0.81
  -4   8  -5    1.13    0.46
  -4   8  -5    0.87    0.48
   4  -8   5    1.96    0.52
  -4   8  -6   -0.10    0.37
   4  -8   6   -0.06    0.37
  -4   8  -6    0.12    0.43
  -4   8  -7   33.06    2.14
  -4   8  -7   28.83    1.97
  -4   8  -8    5.56    0.79
  -4   8  -8    5.01    0.75
  -4   8  -9   33.89    2.23
  -4   8  -9   34.69    2.26
  -4   8 -10   20.75    1.56
  -4   8 -10   23.79    1.65
  -4   8 -11   35.54    2.23
  -4   8 -11   35.32    2.18
  -4   8 -12    8.04    0.71
  -4   8 -14   28.18    1.65
   4  -7 -18    1.23    0.30
  -4   7  18    3.26    0.36
  -4   7  17   10.18    0.84
  -4   7  16   11.58    0.90
  -4   7  15    1.01    0.39
  -4   7  14    0.52    0.45
  -4   7  13    1.30    0.52
  -4   7  13    2.75    0.62
  -4   7  12   10.30    1.10
  -4   7  12   11.00    1.13
  -4   7  11   32.63    2.42
  -4   7  11   38.66    2.47
  -4   7  10   64.13    3.73
  -4   7  10   67.07    3.74
  -4   7   9   23.08    1.84
  -4   7   9   24.46    1.64
   4  -7  -9   21.57    1.69
   4  -7  -9   22.46    3.37
   4  -7  -9   21.84    3.59
   4  -7  -8    0.42    0.46
  -4   7   8    1.01    0.47
  -4   7   8    0.66    0.85
   4  -7  -7    0.34    1.01
  -4   7   7   -0.11    0.44
  -4   7   7   -0.46    0.83
  -4   7   6   28.32    3.37
  -4   7   6   34.79    2.39
   4  -7  -6   36.27    4.23
  -4   7   6   34.22    2.28
   4  -7  -6   33.47    2.29
  -4   7   5    1.71    0.64
   4  -7  -5    3.38    1.44
  -4   7   5    1.19    0.56
   4  -7  -5    2.35    0.57
  -4   7   5    1.00    0.93
  -4   7   4   52.45    3.33
   4  -7  -4   58.08    5.49
  -4   7   4   56.53    3.37
   4  -7  -4   52.78    3.28
  -4   7   4   57.53    4.96
  -4   7   3   36.48    2.51
   4  -7  -3   39.22    4.41
  -4   7   3   41.43    2.60
   4  -7  -3   36.45    2.45
  -4   7   3   38.41    3.92
  -4   7   2   14.86    1.37
  -4   7   2   17.66    1.50
   4  -7  -2   17.22    1.40
  -4   7   2   19.30    3.14
  -4   7   2   19.76    2.75
   4  -7  -1   19.73    2.88
  -4   7   1   20.08    3.19
  -4   7   1   17.72    1.46
  -4   7   1   18.78    1.59
   4  -7  -1   19.11    1.48
  -4   7   0   15.57    1.32
   4  -7   0   22.81    3.00
  -4   7   0   19.41    3.11
   4  -7   0   16.74    1.38
  -4   7  -1  178.55   11.63
  -4   7  -1  190.75    9.80
   4  -7   1  204.84   12.13
  -4   7  -1  164.05   12.16
   4  -7   1  184.88    9.67
  -4   7  -2    0.66    1.14
  -4   7  -2    0.25    0.77
  -4   7  -2    0.19    0.48
   4  -7   2    0.80    0.40
  -4   7  -3    7.25    2.07
  -4   7  -3    6.34    0.87
   4  -7   3    6.82    0.80
  -4   7  -3    5.86    1.50
  -4   7  -4   67.32    3.94
  -4   7  -4   71.71    6.25
   4  -7   4   66.79    3.84
  -4   7  -4   65.40    5.44
  -4   7  -5    2.72    0.57
  -4   7  -5    1.61    1.21
  -4   7  -5    1.16    0.99
   4  -7   6    0.95    0.44
  -4   7  -6    1.12    0.90
  -4   7  -6    0.72    0.43
  -4   7  -7    4.28    0.63
   4  -7   7    3.01    0.59
  -4   7  -8   66.56    3.76
  -4   7  -9    7.70    0.85
  -4   7  -9    8.77    0.97
  -4   7  -9    8.21    0.99
  -4   7 -10   38.74    2.50
  -4   7 -10   38.14    2.44
  -4   7 -10   40.87    2.58
  -4   7 -11   31.11    2.07
  -4   7 -11   33.09    2.13
  -4   7 -12    5.48    0.70
  -4   7 -12    4.87    0.66
  -4   7 -13   19.17    1.37
  -4   7 -13   15.65    1.25
  -4   7 -14   11.14    0.97
  -4   7 -14   11.98    0.93
  -4   7 -15   16.08    1.07
  -4   7 -15   14.10    1.01
   4  -6 -18    9.69    0.90
  -4   6  18   15.21    0.97
  -4   6  17   25.64    1.67
  -4   6  16   19.20    1.34
  -4   6  16   21.37    1.51
  -4   6  15    9.00    0.88
  -4   6  15    9.19    0.98
  -4   6  14   29.21    2.02
  -4   6  14   30.53    2.11
  -4   6  13    3.17    0.68
  -4   6  12  141.47    7.60
  -4   6  11    4.75    0.86
   4  -6 -11    4.25    1.49
   4  -6 -11    5.09    1.77
  -4   6  10   50.14    3.04
   4  -6 -10   47.75    4.96
  -4   6   9   16.76    1.53
   4  -6  -9   16.30    2.81
   4  -6  -9   15.66    1.32
  -4   6   8   17.94    1.54
   4  -6  -8   18.96    3.03
   4  -6  -8   16.47    1.38
  -4   6   8   12.35    2.09
  -4   6   8   14.76    1.30
  -4   6   7   -0.11    0.45
  -4   6   7    1.12    0.90
   4  -6  -6   -0.33    0.89
   4  -6  -6    0.12    0.37
  -4   6   6    0.06    0.41
  -4   6   6    0.23    0.93
  -4   6   5  115.40    6.12
   4  -6  -5  106.09    8.26
  -4   6   5  106.85    5.99
   4  -6  -5  105.60    5.94
  -4   6   5  113.82    7.74
  -4   6   4    0.12    0.41
   4  -6  -4    0.33    0.41
   4  -6  -4   -0.31    1.06
  -4   6   4   -0.13    0.46
  -4   6   4   -0.24    0.79
  -4   6   3   18.63    1.59
   4  -6  -3   25.12    3.22
  -4   6   3   19.99    1.61
  -4   6   3   21.33    2.70
   4  -6  -3   20.32    1.53
  -4   6   2    2.31    0.58
  -4   6   2    2.44    0.63
   4  -6  -2    3.48    1.34
   4  -6  -2    2.72    0.56
  -4   6   2    2.18    1.18
  -4   6   1   16.66    1.40
   4  -6  -1   19.31    2.78
  -4   6   1   17.48    1.48
   4  -6  -1   16.63    1.38
  -4   6   1   19.43    3.07
   4  -6   0   18.83    2.70
  -4   6   0   16.86    1.37
   4  -6   0   17.43    1.38
  -4   6   0   16.52    2.79
  -4   6  -1  109.96    6.26
   4  -6   1  134.34    8.56
  -4   6  -1  119.49    6.29
  -4   6  -1  130.84    9.03
   4  -6   1  120.26    6.33
  -4   6  -2  164.67   11.14
  -4   6  -2  162.47    8.54
  -4   6  -2  161.16    8.65
  -4   6  -2  169.62   10.46
   4  -6   2  167.92    8.57
   4  -6   2  182.99   10.70
   4  -6   2  158.73    8.53
   4  -6   3   29.93    3.10
  -4   6  -3   26.56    1.87
  -4   6  -3   24.74    1.90
   4  -6   3   26.92    1.87
  -4   6  -3   26.12    3.09
  -4   6  -3   31.93    3.75
  -4   6  -4    2.70    0.65
  -4   6  -4    4.05    0.68
   4  -6   4    4.20    0.65
  -4   6  -4    3.91    1.29
  -4   6  -4    1.54    1.28
  -4   6  -5   69.00    4.01
  -4   6  -5   64.43    5.98
  -4   6  -5   70.49    3.99
   4  -6   5   67.45    3.92
  -4   6  -5   66.70    5.43
  -4   6  -6   59.75    3.50
   4  -6   6   59.05    3.48
  -4   6  -6   58.90    4.90
  -4   6  -6   58.38    3.56
  -4   6  -7  106.70    5.75
  -4   6  -7  105.86    5.61
  -4   6  -7   91.46    6.97
   4  -6   7  102.58    5.59
   4  -6   7   99.06    5.59
  -4   6  -8   66.13    3.90
  -4   6  -8   62.17    3.67
   4  -6   8   65.97    3.75
  -4   6  -9   30.39    2.14
   4  -6   9   27.89    1.95
   4  -6  10   57.92    3.39
   4  -6  11   28.74    1.99
  -4   6 -11   32.71    2.13
  -4   6 -12   96.13    5.25
  -4   6 -12   95.89    5.30
  -4   6 -12   96.74    5.38
  -4   6 -13    9.65    0.97
  -4   6 -13    9.64    1.03
  -4   6 -13    8.63    0.84
  -4   6 -14   29.28    1.92
  -4   6 -14   26.00    1.84
  -4   6 -15   10.70    0.96
  -4   6 -15   10.92    0.96
  -4   6 -16    1.84    0.38
  -4   6 -16    2.68    0.46
  -4   6 -17    8.98    0.72
  -4   5  19    5.93    0.52
   4  -5 -19    4.08    0.47
   4  -5 -18   11.73    0.91
   4  -5 -18   11.77    1.06
  -4   5  17    5.94    0.72
  -4   5  16    8.81    0.92
  -4   5  15    5.63    0.72
  -4   5  15    6.94    0.87
  -4   5  14    1.27    0.48
  -4   5  14    2.19    0.63
  -4   5  13    0.36    0.44
  -4   5  13   -0.27    0.50
  -4   5  12    0.07    0.47
  -4   5  12    0.42    0.54
   4  -5 -12    0.31    0.71
   4  -5 -12   -0.72    1.30
   4  -5 -11    6.12    1.77
   4  -5 -11    3.72    1.67
  -4   5  10   18.91    1.62
   4  -5 -10   16.00    2.74
   4  -5 -10   17.63    3.10
  -4   5   9    2.04    0.67
   4  -5  -9    0.63    0.39
   4  -5  -9    0.97    0.95
  -4   5   8   59.72    3.68
   4  -5  -8   57.74    5.61
  -4   5   8   49.89    4.57
   4  -5  -8   59.11    3.48
   4  -5  -7   98.57    7.88
  -4   5   7  106.98    5.83
   4  -5  -7  104.57    5.65
   4  -5  -7  113.40    8.14
  -4   5   7  102.56    5.63
   4  -5  -7   98.33    5.62
  -4   5   7  101.39    7.09
  -4   5   6  114.11    6.34
  -4   5   6  112.78    6.21
   4  -5  -6  114.07    6.18
  -4   5   6  123.60    7.89
   4  -5  -5   20.42    2.80
  -4   5   5   15.90    1.37
   4  -5  -5   15.64    1.32
  -4   5   5   16.57    2.34
  -4   5   4    0.86    0.92
  -4   5   4    0.58    0.47
   4  -5  -4    1.65    1.17
   4  -5  -4    0.46    0.38
  -4   5   4    0.58    0.47
  -4   5   3   63.23    3.82
   4  -5  -3   78.52    5.87
  -4   5   3   63.43    3.79
  -4   5   3   69.74    5.34
   4  -5  -3   63.73    3.70
  -4   5   2   16.26    1.37
   4  -5  -2   16.94    1.30
  -4   5   2   19.76    2.47
   4  -5  -2   19.90    2.68
  -4   5   2   15.05    1.35
  -4   5   1   30.36    2.15
   4  -5  -1   33.15    2.11
  -4   5   1   32.10    3.39
  -4   5   1   32.21    2.19
  -4   5   0   23.99    1.82
  -4   5   0   27.58    1.93
   4  -5   0   27.83    1.84
   4  -5   0   28.20    1.84
   4  -5   1  120.08    7.65
   4  -5   1  106.40    5.63
  -4   5  -1  102.01    5.55
   4  -5   1  102.59    5.61
  -4   5  -2   12.80    2.31
  -4   5  -2    8.55    1.73
   4  -5   2    8.86    1.71
  -4   5  -2   10.27    0.92
  -4   5  -2    8.55    0.95
   4  -5   2    8.82    0.90
   4  -5   2    9.75    0.93
  -4   5  -3    1.67    1.02
   4  -5   3    3.37    0.57
  -4   5  -3    3.93    0.60
  -4   5  -3    2.89    0.62
  -4   5  -3    1.36    1.10
   4  -5   3    4.41    1.16
   4  -5   3    3.80    0.61
  -4   5  -4  142.36    7.79
  -4   5  -4  146.24    9.32
  -4   5  -4  152.57    7.77
   4  -5   4  148.05    7.72
  -4   5  -4  161.27   10.12
   4  -5   4  144.62    7.75
  -4   5  -5   47.71    4.76
  -4   5  -5   54.13    3.12
  -4   5  -5   49.50    3.10
   4  -5   5   52.28    3.10
  -4   5  -5   46.71    4.28
   4  -5   5   51.84    3.06
  -4   5  -6   72.63    4.02
  -4   5  -6   68.09    3.96
  -4   5  -6   75.32    6.05
  -4   5  -6   64.58    5.22
   4  -5   6   71.96    3.98
   4  -5   6   64.21    3.87
  -4   5  -7  128.01    6.88
  -4   5  -7  125.84    6.76
  -4   5  -7  128.15    6.80
  -4   5  -7  119.25    8.20
   4  -5   7  127.34    6.82
   4  -5   7  132.81    6.79
   4  -5   7  124.27    6.75
  -4   5  -8   23.47    1.71
  -4   5  -8   21.42    1.58
  -4   5  -8   19.24    1.49
   4  -5   8   19.91    1.55
  -4   5  -8   18.77    2.38
   4  -5   8   19.43    1.50
   4  -5   9    4.16    0.65
  -4   5  -9    5.35    0.85
   4  -5   9    5.23    0.73
  -4   5  -9    5.54    0.78
  -4   5 -10    7.38    0.92
   4  -5  10    5.89    0.80
  -4   5 -11  105.87    5.79
   4  -5  11  102.56    5.71
  -4   5 -12   25.32    1.82
   4  -5  12   23.12    1.70
  -4   5 -12   20.25    1.63
   4  -5  13  114.97    6.10
  -4   5 -13  110.33    5.97
  -4   5 -14   24.72    1.82
   4  -5  14   23.32    1.69
  -4   5 -15    0.71    0.46
   4  -5  15    1.09    0.40
  -4   5 -16   35.28    2.14
  -4   5 -16   33.74    2.20
  -4   5 -17    1.31    0.44
  -4   5 -18   58.83    3.22
   4  -4 -19    3.80    0.48
  -4   4  19    4.16    0.47
   4  -4 -19    2.95    0.37
   4  -4 -18    2.87    0.46
   4  -4 -18    3.37    0.57
  -4   4  18    3.61    0.52
  -4   4  17    1.67    0.47
  -4   4  16    9.23    0.99
  -4   4  15   16.35    1.24
  -4   4  15   16.73    1.42
  -4   4  14    1.02    0.44
  -4   4  14    0.89    0.55
  -4   4  13   11.43    1.12
   4  -4 -13    8.01    2.19
  -4   4  13   10.54    1.20
  -4   4  12    5.17    0.79
   4  -4 -12    7.79    2.22
   4  -4 -12    4.08    1.49
  -4   4  12    4.79    0.84
  -4   4  11  148.99    8.02
   4  -4 -11  147.60   10.25
   4  -4 -10   26.13    3.44
  -4   4  10   21.02    1.79
   4  -4  -9   52.27    5.04
  -4   4   9   56.22    3.38
   4  -4  -9   52.32    5.30
   4  -4  -9   46.87    4.29
   4  -4  -9   52.12    3.09
   4  -4  -8   35.84    2.39
  -4   4   8   40.68    2.67
   4  -4  -8   44.18    4.42
   4  -4  -8   41.16    4.23
  -4   4   8   40.27    3.53
  -4   4   7  120.73    6.41
   4  -4  -7  116.40    6.17
   4  -4  -7  121.22    8.40
   4  -4  -7  123.82    8.56
   4  -4  -7  109.56    6.17
  -4   4   7  107.47    7.46
  -4   4   6    5.07    1.34
  -4   4   6    6.52    0.88
   4  -4  -6    5.58    1.51
   4  -4  -6    7.07    1.67
  -4   4   6    5.97    0.76
   4  -4  -6    6.48    0.76
  -4   4   5    5.92    1.30
  -4   4   5    4.71    0.75
  -4   4   5    5.13    0.68
   4  -4  -5    4.29    1.37
   4  -4  -5    3.91    0.60
  -4   4   4    5.45    1.31
   4  -4  -4    6.96    1.58
   4  -4  -4    6.24    0.72
   4  -4  -3   15.81    2.25
  -4   4   3   14.45    2.06
   4  -4  -2   30.72    3.16
  -4   4   2   26.10    2.79
  -4   4   1    6.94    1.45
   4  -4  -1   10.61    1.80
   4  -4   0   61.85    4.87
   4  -4   1    2.42    0.96
   4  -4   2   10.62    1.72
  -4   4  -2   10.49    1.70
  -4   4  -3  865.63   46.68
   4  -4   3  989.92   47.06
  -4   4  -4    7.96    1.46
  -4   4  -4   10.14    0.91
  -4   4  -5   28.67    1.91
   4  -4   5   31.89    1.99
  -4   4  -5   32.70    3.05
  -4   4  -5   25.89    1.90
   4  -4   5   29.34    1.91
  -4   4  -6   27.30    1.81
  -4   4  -6   21.62    1.71
  -4   4  -6   30.26    3.34
   4  -4   6   27.70    1.84
  -4   4  -6   28.51    2.82
   4  -4   6   25.28    1.75
   4  -4   7   39.81    2.48
  -4   4  -7   40.34    2.59
  -4   4  -7   38.11    2.54
   4  -4   7   41.08    2.60
  -4   4  -7   43.03    3.73
  -4   4  -7   41.90    2.52
   4  -4   7   45.21    2.59
   4  -4   8    0.93    0.41
  -4   4  -8    1.00    0.50
   4  -4   8    0.97    0.44
  -4   4  -8    1.23    0.47
  -4   4  -8    1.49    0.77
  -4   4  -9   14.79    1.31
   4  -4   9   16.33    1.37
   4  -4   9   16.03    1.29
  -4   4 -10  171.47    9.02
   4  -4  10  173.25    9.04
   4  -4  10  170.16    8.96
  -4   4 -11   23.68    1.79
  -4   4 -11   24.87    1.87
   4  -4  11   21.02    1.72
   4  -4  11   22.29    1.68
  -4   4 -12   59.58    3.73
  -4   4 -12   63.47    3.71
   4  -4  12   59.89    3.67
   4  -4  12   60.30    3.58
  -4   4 -13   52.09    3.23
  -4   4 -13   53.49    3.19
  -4   4 -13   44.35    2.89
   4  -4  13   48.52    3.01
   4  -4  13   53.05    3.15
   4  -4  14    0.54    0.43
   4  -4  14    0.70    0.50
  -4   4 -14    0.27    0.55
  -4   4 -15   96.35    4.90
  -4   4 -15   79.86    4.72
   4  -4  15   84.22    4.73
   4  -4  15   79.28    4.60
  -4   4 -16    8.80    0.93
   4  -4  16   10.30    0.98
   4  -4  17   37.32    2.28
  -4   4 -18    7.65    0.83
  -4   4 -19    4.72    0.59
   4  -3 -20    3.89    0.49
   4  -3 -19    0.56    0.25
   4  -3 -19    0.28    0.29
  -4   3  19    0.51    0.26
   4  -3 -18   -0.16    0.34
   4  -3 -18   -0.23    0.39
  -4   3  18   -0.04    0.28
  -4   3  17   10.92    1.01
   4  -3 -17    9.63    1.11
   4  -3 -17   10.62    1.03
  -4   3  16   14.27    1.24
  -4   3  15   31.95    2.19
  -4   3  14   19.00    1.57
  -4   3  13   61.01    3.77
  -4   3  13   65.66    3.91
   4  -3 -13   70.30    3.99
  -4   3  12   47.78    2.97
   4  -3 -12   46.44    3.00
  -4   3  12   46.36    2.98
   4  -3 -12   42.97    4.32
  -4   3  11    8.97    1.04
   4  -3 -11    8.07    1.79
  -4   3  10   39.59    2.66
   4  -3 -10   36.18    3.98
  -4   3   9    5.61    0.85
   4  -3  -9    3.43    1.30
  -4   3   8  100.70    5.53
   4  -3  -8   86.68    6.48
   4  -3  -8   96.07    5.23
   4  -3  -8  110.35    7.74
  -4   3   8   93.82    6.37
   4  -3  -8  106.10    7.30
  -4   3   7   47.97    4.06
  -4   3   7   56.14    3.37
   4  -3  -7   53.54    4.70
   4  -3  -7   51.71    3.19
   4  -3  -7   62.91    5.21
   4  -3  -7   56.46    3.15
  -4   3   6    2.62    0.62
   4  -3  -6    3.45    1.22
   4  -3  -6    2.97    1.31
  -4   3   6    3.31    0.94
   4  -3  -6    2.79    0.49
   4  -3  -6    2.69    0.50
   4  -3  -5   15.38    1.17
   4  -3  -5   14.58    2.23
  -4   3   5   16.91    1.95
   4  -3  -5   14.14    2.12
  -4   3   4   20.28    2.20
   4  -3  -3  315.15   17.43
   4  -3  -2   14.22    1.98
   4  -3  -1   96.10    6.47
   4  -3   0   18.70    2.23
   4  -3   1    5.38    1.18
   4  -3   2  694.48   34.64
  -4   3  -2  647.55   34.85
   4  -3   3  294.07   15.61
  -4   3  -3  268.11   15.74
  -4   3  -4  332.53   18.35
  -4   3  -5   37.02    3.16
  -4   3  -5   38.16    3.56
  -4   3  -6   25.53    2.50
   4  -3   6   24.10    1.59
   4  -3   7  113.95    6.06
   4  -3   7  118.01    6.21
  -4   3  -7  104.97    7.12
   4  -3   7  118.63    6.16
  -4   3  -8   10.19    1.62
  -4   3  -8   11.56    1.01
   4  -3   8   11.51    1.06
   4  -3   8   10.36    1.01
  -4   3  -9  391.89   19.36
   4  -3   9  394.10   19.36
  -4   3  -9  368.60   20.46
   4  -3   9  377.43   19.40
  -4   3 -10   14.59    1.24
  -4   3 -10   14.02    1.28
   4  -3  10   12.64    1.22
   4  -3  10   12.77    1.18
   4  -3  11   27.91    3.07
  -4   3 -11   24.91    1.90
  -4   3 -11   27.73    1.98
   4  -3  11   26.72    1.94
   4  -3  11   25.46    1.87
   4  -3  12    0.49    0.47
  -4   3 -12    0.35    0.59
   4  -3  12    0.07    0.45
   4  -3  12    0.69    0.75
  -4   3 -12    0.20    0.47
   4  -3  13    0.75    0.46
  -4   3 -13    1.23    0.61
  -4   3 -13    1.20    0.60
   4  -3  13    0.92    0.56
  -4   3 -14   94.72    5.45
   4  -3  14   92.08    5.36
  -4   3 -14   98.58    5.50
   4  -3  14  102.46    5.53
  -4   3 -15    0.42    0.57
   4  -3  15    0.06    0.39
   4  -3  15    0.21    0.49
   4  -3  16   65.23    3.99
  -4   3 -16   61.21    3.84
   4  -3  16   70.35    3.94
   4  -3  17    0.48    0.35
   4  -3  17   -0.06    0.47
  -4   3 -17    0.31    0.57
   4  -3  18    2.64    0.49
   4  -3  18    3.68    0.59
   4  -3  19    2.95    0.47
  -4   3 -20    7.06    0.70
   4  -2 -20    1.48    0.37
   4  -2 -19    3.03    0.47
   4  -2 -19    3.25    0.47
   4  -2 -18    5.21    0.69
   4  -2 -18    5.02    0.74
  -4   2  18    6.28    0.64
   4  -2 -17    3.47    0.64
   4  -2 -17    2.17    0.67
  -4   2  17    2.88    0.53
  -4   2  16   43.83    2.78
   4  -2 -16   48.05    3.13
   4  -2 -15   14.68    1.43
  -4   2  15   14.03    1.28
   4  -2 -14   56.09    5.74
   4  -2 -14   55.12    3.45
  -4   2  14   52.60    3.28
   4  -2 -13   29.02    4.01
   4  -2 -13   29.22    2.13
  -4   2  13   25.45    1.95
  -4   2  12   16.50    1.41
  -4   2  12   17.65    1.47
   4  -2 -12   16.59    1.53
  -4   2  11  165.81    8.71
   4  -2 -11  145.17   10.14
   4  -2 -11  169.48    8.75
  -4   2  10   31.24    2.18
   4  -2 -10   28.56    3.22
   4  -2 -10   30.95    2.14
  -4   2   9   71.98    4.31
   4  -2  -9   77.70    4.23
   4  -2  -9   64.96    5.50
  -4   2   8   59.49    3.47
   4  -2  -8   53.60    4.59
   4  -2  -8   51.36    4.15
   4  -2  -7   16.17    2.01
   4  -2  -7   16.87    1.23
  -4   2   7   21.71    2.09
   4  -2  -7   16.56    2.27
   4  -2  -6  152.88    9.00
   4  -2  -6  137.84    7.22
   4  -2  -5   14.25    1.06
   4  -2  -5   13.33    1.93
   4  -2  -4  690.40   33.65
   4  -2  -4  642.70   31.98
   4  -2  -3   47.88    2.71
   4  -2  -2  150.06    8.98
   4  -2  -1  107.46    6.79
   4  -2   0    0.15    0.65
   4  -2   0   -0.06    0.22
   4  -2   1   36.14    3.10
  -4   2  -2    0.33    0.89
   4  -2   2    0.15    0.64
   4  -2   3  202.66   10.87
  -4   2  -3  174.61   10.83
  -4   2  -4    9.45    1.62
   4  -2   4    8.13    0.72
   4  -2   5    0.74    0.30
  -4   2  -5   -0.35    0.84
   4  -2   6   14.87    1.07
  -4   2  -6   15.28    2.05
   4  -2   7   38.50    2.27
  -4   2  -7   41.69    3.69
  -4   2  -8   31.02    2.75
   4  -2   8   32.68    2.90
   4  -2   9   23.35    2.32
  -4   2  -9   21.83    2.27
   4  -2   9   21.81    1.58
   4  -2  10   26.81    1.87
   4  -2  11   68.78    5.45
   4  -2  11   70.60    4.11
  -4   2 -11   74.15    4.20
   4  -2  12   -0.12    0.44
  -4   2 -12    0.26    0.49
   4  -2  12    0.46    0.71
   4  -2  13   16.02    2.40
  -4   2 -13   19.39    1.61
  -4   2 -13   19.05    1.63
   4  -2  13   19.10    1.56
  -4   2 -14   18.22    1.52
  -4   2 -14   17.77    1.56
   4  -2  14   16.25    1.47
  -4   2 -15  116.07    6.58
  -4   2 -15  125.87    6.72
   4  -2  15  121.86    6.63
   4  -2  16   71.17    4.43
  -4   2 -16   81.75    4.53
   4  -2  16   74.35    4.37
   4  -2  17    0.96    0.53
  -4   2 -17    0.27    0.63
  -4   2 -17    0.94    0.41
   4  -2  17    1.57    0.54
  -4   2 -18  129.90    6.66
   4  -2  18  124.73    6.58
   4  -2  18  112.08    6.44
   4  -2  19    5.07    0.64
   4  -2  19    5.54    0.74
   4  -2  20   93.76    4.62
   4  -2  20   81.06    4.48
   4  -1 -20    0.93    0.26
   4  -1 -20    1.12    0.30
   4  -1 -19    8.92    0.81
   4  -1 -19    8.91    0.78
   4  -1 -18   18.59    1.41
   4  -1 -18   17.43    1.38
   4  -1 -17   11.96    1.27
   4  -1 -17   13.55    1.24
  -4   1  17   13.70    1.10
   4  -1 -16    7.43    1.09
  -4   1  16    7.86    0.87
   4  -1 -16    8.18    1.09
   4  -1 -15   36.11    2.56
   4  -1 -15   39.43    2.73
  -4   1  15   34.67    2.36
   4  -1 -14   10.19    2.40
  -4   1  14    7.93    0.92
   4  -1 -14    7.94    1.07
   4  -1 -13   33.16    4.34
   4  -1 -13   32.69    2.32
  -4   1  13   29.70    2.11
   4  -1 -12   79.59    7.17
   4  -1 -12   79.90    4.68
  -4   1  12   80.09    4.55
   4  -1 -11   10.62    1.11
   4  -1 -11   12.73    2.62
   4  -1 -11   12.66    1.25
  -4   1  11   11.37    1.10
  -4   1  10   69.61    4.26
   4  -1 -10   70.06    5.33
   4  -1 -10   73.33    6.62
   4  -1 -10   82.61    4.38
  -4   1   9   38.71    2.57
   4  -1  -9   37.09    3.44
   4  -1  -9   47.33    4.65
   4  -1  -9   39.83    2.52
   4  -1  -8   17.92    2.16
   4  -1  -8   16.34    2.70
   4  -1  -8   15.23    1.78
   4  -1  -7  292.15   15.32
   4  -1  -7  281.20   14.17
   4  -1  -7  291.18   15.73
   4  -1  -6   99.94    6.45
   4  -1  -6   96.25    5.10
   4  -1  -6  101.14    6.21
   4  -1  -5   98.32    5.10
   4  -1  -5   99.23    6.36
   4  -1  -5   92.52    6.10
   4  -1  -4    1.60    0.34
   4  -1  -4    0.65    0.66
   4  -1  -4    0.60    0.68
   4  -1  -3   28.89    2.63
   4  -1  -3   27.94    1.70
   4  -1  -2  138.23    7.05
   4  -1  -1    0.86    0.28
   4  -1  -1    0.31    0.14
   4  -1  -1    0.95    0.69
   4  -1   0   58.70    3.80
   4  -1   0   44.66    2.71
   4  -1   1   16.86    1.14
   4  -1   1   20.78    2.04
  -4   1  -2   16.02    1.78
   4  -1   2   16.98    1.83
   4  -1   3    3.94    0.46
  -4   1  -3    3.57    1.06
  -4   1  -4   60.22    4.19
   4  -1   4   54.05    2.99
   4  -1   5  274.25   13.95
  -4   1  -5  318.41   15.52
   4  -1   6   21.02    1.37
   4  -1   6   21.99    2.15
  -4   1  -6   22.14    2.37
   4  -1   7  148.27    7.61
   4  -1   7  153.59    8.74
   4  -1   8   18.80    1.99
   4  -1   9   58.34    4.08
   4  -1  10   47.63    2.87
   4  -1  11    0.88    0.40
   4  -1  11   -0.21    0.72
   4  -1  12  133.91    8.95
  -4   1 -12  141.34    7.44
   4  -1  12  137.16    7.39
  -4   1 -13   10.67    1.11
   4  -1  13   11.31    1.91
   4  -1  13   10.27    1.10
  -4   1 -14   85.02    4.89
   4  -1  14   88.23    6.57
   4  -1  14   86.53    4.93
   4  -1  15   23.05    2.94
  -4   1 -15   21.05    1.73
  -4   1 -15   24.21    1.91
   4  -1  15   24.02    1.85
  -4   1 -16    9.23    0.98
  -4   1 -16   10.97    1.25
   4  -1  16    9.88    1.11
   4  -1  17  128.60    7.00
   4  -1  18   12.77    1.21
   4  -1  19   59.29    3.50
   4  -1  19   57.39    3.41
   4  -1  20    0.16    0.33
  -4   1 -20    0.39    0.49
   4  -1  20    0.14    0.38
   4  -1  21   12.79    0.98
   4  -1  21   12.45    0.92
  -4   1 -22    1.05    0.28
   4   0 -20    4.58    0.48
   4   0 -20    3.65    0.50
   4   0 -19    5.33    0.64
   4   0 -19    4.56    0.53
   4   0 -19    4.37    0.66
   4   0 -18   48.07    2.88
   4   0 -18   46.50    2.83
   4   0 -17    4.82    0.76
   4   0 -17    3.98    0.76
   4   0 -16    2.34    0.76
   4   0 -16    3.06    0.75
   4   0 -16    1.09    0.64
   4   0 -15  175.34    8.76
   4   0 -15  170.64    8.61
   4   0 -14   21.79    1.91
   4   0 -14   21.09    1.81
  -4   0  14   18.64    1.53
   4   0 -13   22.03    3.49
  -4   0  13   20.28    1.62
   4   0 -13   23.70    1.88
  -4   0  12   11.29    1.14
   4   0 -12   13.75    2.67
   4   0 -12   15.94    1.44
  -4   0  11   85.94    4.92
   4   0 -11   93.96    7.60
   4   0 -11   85.84    4.94
   4   0 -11   97.07    5.13
   4   0 -10  129.41    9.25
   4   0 -10  118.19    6.62
   4   0 -10  127.35    6.71
   4   0  -9   34.41    3.88
   4   0  -9   30.78    2.13
   4   0  -8  224.93   11.25
   4   0  -8  240.33   13.82
   4   0  -7   18.95    2.10
   4   0  -7   19.79    1.94
   4   0  -6  249.29   12.81
   4   0  -6  219.66   12.93
   4   0  -6  255.78   14.15
   4   0  -6  233.63   11.77
   4   0  -5    0.35    0.23
   4   0  -5    0.55    0.53
   4   0  -5    0.35    0.58
   4   0  -4   20.00    2.06
   4   0  -4   20.26    1.99
   4   0  -4   19.47    1.26
   4   0  -3   33.82    2.72
   4   0  -3   29.98    2.58
   4   0  -3   29.93    1.78
   4   0  -2    1.63    0.35
   4   0  -2    0.79    0.68
   4   0  -2    2.00    0.70
   4   0  -1  718.84   34.27
   4   0  -1  664.73   33.39
   4   0   0    3.57    0.57
   4   0   0    4.13    0.95
   4   0   1  161.02    9.60
   4   0   1  182.52    9.26
  -4   0  -2   45.89    3.37
   4   0   2   49.10    3.44
   4   0   3   32.93    2.71
  -4   0  -3   35.11    2.77
   4   0   4  556.86   28.80
  -4   0  -4  577.09   28.90
  -4   0  -5   84.11    5.51
   4   0   5   87.30    5.39
   4   0   6 1130.74   56.86
  -4   0  -6 1246.87   58.31
   4   0   6 1266.95   58.05
   4   0   7  135.67    7.46
   4   0   7  123.41    6.41
   4   0   8  256.10   13.74
   4   0   9    0.67    0.51
   4   0  10   -0.19    0.73
   4   0  11  246.55   12.45
   4   0  11  253.23   14.10
   4   0  11  238.77   12.46
   4   0  12    0.69    0.44
   4   0  12   -0.22    0.84
   4   0  12    0.78    0.46
   4   0  13  200.25   10.45
   4   0  13  200.77   12.22
  -4   0 -13  207.55   10.40
   4   0  13  192.94   10.45
  -4   0 -14    4.03    0.68
   4   0  14    3.73    1.30
   4   0  14    3.59    0.72
   4   0  14    4.99    0.76
   4   0  15   32.94    2.26
  -4   0 -15   30.43    2.08
   4   0  15   25.98    2.14
   4   0  15   33.97    3.64
   4   0  16  246.44   15.63
   4   0  16  290.30   13.74
  -4   0 -16  252.82   13.40
   4   0  17    0.21    0.57
   4   0  18   57.34    3.53
   4   0  19    0.82    0.49
  -4   0 -19    1.26    0.60
  -4   0 -20   11.08    1.10
   4   0  20    9.28    1.14
   4   0  20   11.08    1.02
  -4   0 -21   22.10    1.54
   4   0  21   22.21    1.53
   4   0  21   20.44    1.44
   4   0  22    0.38    0.23
   4   0  22    0.60    0.29
   4   1 -20    0.64    0.26
   4   1 -19   26.74    1.71
   4   1 -19   30.10    1.93
   4   1 -18    0.25    0.39
   4   1 -18    0.28    0.37
   4   1 -18    0.39    0.49
   4   1 -17   10.75    1.14
   4   1 -17   10.22    1.06
   4   1 -16  128.48    6.85
   4   1 -16  125.57    6.90
   4   1 -16  119.53    6.82
   4   1 -15    1.42    0.65
   4   1 -15    0.93    0.87
   4   1 -15    1.37    0.66
   4   1 -14   53.61    5.71
   4   1 -14   63.67    3.91
   4   1 -14   60.52    3.87
   4   1 -13    4.54    1.66
   4   1 -13    1.99    0.95
   4   1 -13    2.28    0.75
   4   1 -12   43.38    4.91
   4   1 -12   47.40    3.23
   4   1 -12   51.46    3.21
   4   1 -11    4.22    1.61
   4   1 -11    2.57    0.74
   4   1 -10    0.61    0.83
   4   1 -10   -0.13    0.53
   4   1 -10    0.58    0.38
   4   1  -9   89.61    5.03
   4   1  -9   91.53    7.08
   4   1  -9   93.75    5.13
   4   1  -8    0.25    0.96
   4   1  -8    0.11    0.44
   4   1  -7  167.32    9.80
   4   1  -7  141.24    8.28
   4   1  -6   98.55    6.80
   4   1  -6   97.44    5.91
   4   1  -5  168.52    9.89
   4   1  -5  155.74    8.95
   4   1  -4  253.86   13.55
   4   1  -3   12.27    1.17
   4   1  -3   13.28    1.53
   4   1  -2   52.92    3.22
   4   1  -2   52.64    3.64
   4   1  -1    8.22    0.94
   4   1  -1    9.58    1.27
   4   1   0  149.64    7.96
   4   1   1    5.53    1.02
   4   1   1    4.96    0.82
  -4  -1  -1    6.51    0.98
  -4  -1  -2    0.90    0.63
   4   1   2    1.07    0.61
   4   1   2    1.82    0.74
   4   1   3  154.94    8.82
  -4  -1  -3  160.14    8.72
  -4  -1  -4  133.49    7.30
   4   1   4  118.13    7.18
  -4  -1  -5  290.45   14.94
   4   1   5  270.13   14.75
   4   1   6  213.60   11.58
   4   1   7   14.26    1.60
   4   1   8   81.55    5.08
   4   1   9    3.00    0.79
   4   1   9    2.99    1.05
   4   1  10  250.65   14.12
   4   1  11    5.77    0.75
   4   1  11    6.13    0.76
   4   1  11    6.51    1.47
   4   1  12  109.02    5.84
   4   1  12  116.59    7.53
   4   1  12  102.08    5.83
   4   1  13  126.16    6.88
   4   1  13  137.90    8.72
   4   1  13  126.42    6.92
   4   1  14    1.07    0.55
  -4  -1 -14    1.12    0.49
   4   1  14    0.25    0.94
   4   1  14    1.46    0.61
   4   1  15  416.70   21.39
   4   1  15  405.53   23.45
   4   1  15  436.26   21.43
   4   1  16    4.85    0.86
   4   1  16    5.26    0.88
   4   1  16    4.12    1.44
   4   1  17  360.98   17.78
   4   1  17  356.87   17.77
  -4  -1 -18   42.15    2.82
   4   1  18   40.35    2.75
   4   1  19    6.03    0.86
  -4  -1 -19    5.03    0.88
  -4  -1 -20   47.01    2.92
   4   1  20   47.42    2.91
   4   1  21    0.04    0.36
  -4  -1 -21   -0.04    0.37
   4   1  21    0.06    0.53
  -4  -1 -22   89.95    4.66
   4   1  22   90.39    4.72
   4   1  22   85.08    4.64
   4   1  23    4.45    0.45
   4   2 -19    3.35    0.53
   4   2 -18   19.62    1.36
   4   2 -18   20.81    1.50
   4   2 -18   17.84    1.49
   4   2 -17   62.37    3.96
   4   2 -17   70.04    4.00
   4   2 -17   69.63    3.86
   4   2 -16   12.78    1.37
   4   2 -16   12.79    1.39
   4   2 -16   14.45    1.32
   4   2 -16   14.44    1.53
   4   2 -15  180.00    9.49
   4   2 -15  176.44    9.55
   4   2 -15  179.91    9.58
   4   2 -14   16.15    1.61
   4   2 -14   18.28    1.62
   4   2 -14   16.81    1.82
   4   2 -13   36.62    2.51
   4   2 -13   32.57    2.40
   4   2 -12    0.95    0.92
   4   2 -12    0.77    0.54
   4   2 -12    0.44    0.62
   4   2 -11    0.30    1.12
   4   2 -11    0.28    0.57
   4   2 -11    0.37    0.56
   4   2 -10  190.77   11.73
   4   2 -10  170.10    9.31
   4   2 -10  182.69    9.55
   4   2 -10  189.87    9.53
   4   2  -9   96.10    6.98
   4   2  -9   92.20    5.05
   4   2  -9   90.65    5.20
   4   2  -9   93.03    5.20
   4   2  -8   80.53    5.94
   4   2  -8   73.74    4.28
   4   2  -7   39.53    2.91
   4   2  -7   42.04    3.77
   4   2  -6   25.08    2.15
   4   2  -6   23.54    2.62
   4   2  -5  283.11   15.37
   4   2  -5  277.05   14.75
   4   2  -4   13.46    1.46
   4   2  -4   15.20    1.82
   4   2  -4   16.50    1.66
   4   2  -3  195.31   10.79
   4   2  -3  215.09   11.34
   4   2  -3  204.39   11.06
   4   2  -2   87.46    5.30
   4   2  -2   97.14    5.62
   4   2  -1  162.52    8.69
   4   2  -1  147.75    8.34
   4   2   0   27.01    2.10
  -4  -2  -1    0.07    0.41
   4   2   1    0.77    0.54
   4   2   2   49.86    3.39
  -4  -2  -2   48.35    3.16
   4   2   2   53.54    3.55
  -4  -2  -3  213.76   11.41
   4   2   3  237.26   11.77
   4   2   3  202.14   11.62
   4   2   4  373.06   19.31
   4   2   5   75.16    4.74
   4   2   6    6.91    1.11
   4   2   7  301.37   15.82
   4   2   8    1.32    0.73
   4   2   8    3.88    0.81
   4   2   9  332.56   17.49
   4   2   9  344.77   18.19
   4   2  10    2.84    1.02
   4   2  10    4.06    0.77
   4   2  11  179.77   10.15
   4   2  11  158.19    8.48
   4   2  12   93.85    6.54
   4   2  12   88.16    4.99
   4   2  13   19.96    2.62
   4   2  13   20.56    1.65
   4   2  14   61.11    3.68
   4   2  14   60.07    3.72
   4   2  14   61.55    5.27
   4   2  15    0.49    0.53
   4   2  15    0.22    0.56
   4   2  16    4.42    0.83
   4   2  16    3.11    1.36
   4   2  16    5.00    0.86
   4   2  17    1.12    0.61
   4   2  17    0.85    0.63
   4   2  18   27.98    2.11
   4   2  18   26.34    2.10
   4   2  19   91.29    5.17
  -4  -2 -19   97.03    5.19
   4   2  19   84.64    5.14
   4   2  20   -0.06    0.45
  -4  -2 -20    0.05    0.47
  -4  -2 -21   80.26    4.42
   4   2  21   79.93    4.75
   4   2  21   81.12    4.47
  -4  -2 -22    7.71    0.74
   4   2  22    7.10    0.93
   4   2  22    9.25    0.81
   4   2  23    7.87    0.70
   4   2  23    8.46    0.69
   4   3 -19    0.33    0.27
   4   3 -18   21.05    1.41
   4   3 -18   24.39    1.62
   4   3 -18   22.55    1.59
   4   3 -17    4.56    0.73
   4   3 -17    4.24    0.63
   4   3 -17    3.90    0.72
   4   3 -16  162.49    8.94
   4   3 -16  174.39    8.86
   4   3 -15    0.32    0.51
   4   3 -15    0.07    0.59
   4   3 -14   24.05    1.93
   4   3 -14   25.19    2.03
   4   3 -13   16.85    2.98
   4   3 -13   26.56    1.97
   4   3 -12    0.88    1.05
   4   3 -12    0.72    0.58
   4   3 -12    1.18    0.62
   4   3 -11  261.84   15.96
   4   3 -11  259.26   13.60
   4   3 -11  284.85   13.92
   4   3 -10    2.59    1.24
   4   3 -10    4.20    0.62
   4   3 -10    3.78    0.75
   4   3  -9  287.34   14.41
   4   3  -9  285.07   16.19
   4   3  -9  275.68   14.21
   4   3  -8   48.81    2.86
   4   3  -8   49.19    4.24
   4   3  -8   46.27    2.97
   4   3  -7   67.21    5.09
   4   3  -7   68.86    3.94
   4   3  -6   41.34    3.49
   4   3  -6   40.99    3.07
   4   3  -5    5.35    1.11
   4   3  -5    3.86    0.85
   4   3  -4  886.22   43.33
   4   3  -4  830.30   43.27
   4   3  -4  881.56   43.43
   4   3  -3   18.38    1.80
   4   3  -3   18.40    1.75
   4   3  -3   15.99    1.74
   4   3  -2  580.14   28.73
   4   3  -2  542.98   28.42
   4   3  -2  585.17   28.79
   4   3  -1  737.58   36.21
   4   3  -1  825.58   36.73
   4   3  -1  802.77   36.77
   4   3   0   63.73    3.65
  -4  -3   0   57.90    3.40
   4   3   0   65.35    4.20
  -4  -3  -1    7.90    0.76
   4   3   1    8.98    1.22
   4   3   2    0.21    0.67
   4   3   2    1.53    0.70
   4   3   3  338.65   17.37
   4   3   3  324.11   17.29
   4   3   4   24.49    2.22
   4   3   4   25.14    2.31
   4   3   5    1.17    0.65
   4   3   5    1.31    0.71
   4   3   6  618.98   31.42
   4   3   6  620.00   31.33
   4   3   7    9.96    1.44
   4   3   7    7.81    1.19
   4   3   8  397.74   20.54
   4   3   9   12.39    1.46
   4   3  10  143.82    8.62
   4   3  10  133.34    7.80
   4   3  11   57.21    4.72
   4   3  11   61.96    3.56
   4   3  12    0.82    0.45
   4   3  12   -0.22    0.72
   4   3  12    1.12    0.48
   4   3  13   98.10    5.66
   4   3  13  106.00    5.75
   4   3  13  114.68    7.61
   4   3  14    2.15    0.57
   4   3  14    2.62    1.18
   4   3  14    1.89    0.62
   4   3  15   42.48    4.49
   4   3  15   45.98    3.02
   4   3  16   22.28    1.86
   4   3  16   20.60    2.98
   4   3  17    6.29    0.96
   4   3  18  273.69   14.08
   4   3  18  271.50   14.10
   4   3  19    3.26    0.75
   4   3  19    3.95    0.80
   4   3  20   52.32    3.11
  -4  -3 -20   47.54    2.98
   4   3  20   47.23    3.08
   4   3  20   52.15    3.52
   4   3  21    1.46    0.50
  -4  -3 -21    0.98    0.42
   4   3  21    1.86    0.81
  -4  -3 -22   18.39    1.34
   4   3  22   21.28    1.74
   4   3  23    0.80    0.28
   4   3  23    0.93    0.41
   4   4 -18   -0.11    0.35
   4   4 -17    2.32    0.44
   4   4 -17    1.91    0.53
   4   4 -16    7.19    0.89
   4   4 -16    5.27    0.72
   4   4 -16    6.40    1.06
   4   4 -15   10.18    1.11
   4   4 -15    9.29    1.01
   4   4 -15    9.95    1.57
   4   4 -14   33.28    2.39
   4   4 -14   35.27    2.33
   4   4 -14   31.13    2.38
   4   4 -14   32.69    2.66
   4   4 -13    3.08    0.64
   4   4 -13    4.00    0.81
   4   4 -13    4.30    0.76
   4   4 -13    4.02    0.83
   4   4 -13    4.81    1.22
   4   4 -12   93.94    5.10
   4   4 -12   81.53    5.02
   4   4 -12   86.07    4.96
   4   4 -12   94.11    5.10
   4   4 -12   77.99    4.76
   4   4 -11    0.17    0.41
   4   4 -11    1.04    0.80
   4   4 -11   -0.08    0.69
   4   4 -11    0.23    0.51
   4   4 -11    0.28    0.49
   4   4 -11    0.84    0.58
   4   4 -11    0.05    0.35
   4   4 -10  117.65    6.24
   4   4 -10  100.00    7.65
   4   4 -10  104.58    6.00
   4   4 -10  116.77    6.24
   4   4 -10  124.12    6.31
   4   4 -10  105.55    6.05
   4   4  -9   82.27    6.24
   4   4  -9   90.28    4.82
   4   4  -9   90.54    4.96
   4   4  -9   90.90    5.02
   4   4  -9   80.03    4.80
   4   4  -9   84.06    4.93
   4   4  -8   50.09    2.86
   4   4  -8   38.81    2.64
   4   4  -8   37.63    3.68
   4   4  -8   43.24    2.66
   4   4  -8   46.51    2.87
   4   4  -7   48.51    3.09
   4   4  -7   46.77    3.88
   4   4  -7   46.64    3.10
   4   4  -7   47.92    2.89
   4   4  -7   51.31    3.02
   4   4  -7   51.17    3.07
   4   4  -6   17.46    1.44
   4   4  -6   14.96    1.35
   4   4  -6   14.73    1.40
   4   4  -6   18.00    1.94
   4   4  -6   15.37    1.28
   4   4  -5  123.63    7.14
   4   4  -5  112.80    7.04
   4   4  -4   51.51    3.76
   4   4  -4   56.49    3.67
   4   4  -4   46.44    3.80
   4   4  -3   60.26    4.22
   4   4  -3   64.93    4.39
   4   4  -3   58.16    3.80
   4   4  -2 1816.97   85.42
   4   4  -2 1833.20   85.55
   4   4  -2 1643.71   84.66
   4   4  -1    0.13    0.73
   4   4  -1    0.34    0.28
   4   4  -1   -0.12    0.63
   4   4   0  597.98   27.95
   4   4   0  594.68   27.81
   4   4   0  512.97   26.79
   4   4   1    0.38    0.76
   4   4   1    0.74    0.42
   4   4   2  168.06    9.33
   4   4   2  160.38    8.75
   4   4   2  169.37    9.40
   4   4   3   57.00    3.82
   4   4   3   48.68    3.32
   4   4   4    4.98    0.88
   4   4   4    4.65    0.98
   4   4   5    5.01    0.96
   4   4   5    4.92    1.01
   4   4   6  128.05    7.66
   4   4   6  127.48    7.63
   4   4   6  140.38    7.97
   4   4   7  802.63   40.73
   4   4   7  815.97   40.88
   4   4   7  813.60   41.05
   4   4   8    6.91    1.19
   4   4   8    7.34    1.35
   4   4   9  175.49    9.89
   4   4  10  201.17   11.13
   4   4  11    1.04    0.88
   4   4  11    0.27    0.40
   4   4  12  321.26   16.44
   4   4  12  348.84   18.52
   4   4  13    3.58    0.65
   4   4  13    5.01    1.43
   4   4  14  182.00    9.74
   4   4  14  183.21   11.87
   4   4  14  190.84    9.85
   4   4  15   22.80    1.83
   4   4  15   19.50    2.96
   4   4  15   25.40    1.95
   4   4  16   20.27    1.73
   4   4  16   22.02    1.83
   4   4  17  154.78    8.38
   4   4  17  156.35    8.46
   4   4  18   -0.08    0.65
   4   4  19  167.99    9.10
   4   4  19  174.66    9.54
  -4  -4 -20   42.52    2.84
   4   4  20   51.77    3.05
   4   4  20   52.85    3.51
   4   4  21   24.12    1.72
   4   4  21   27.89    2.13
   4   4  22    7.77    1.07
   4   4  23    6.03    0.82
   4   4  23    7.09    0.66
   4   5 -18   42.80    2.40
   4   5 -17    7.60    0.69
   4   5 -17   10.42    0.90
   4   5 -16    9.52    1.01
   4   5 -16   11.10    0.93
   4   5 -15   23.79    1.83
   4   5 -15   24.05    1.80
   4   5 -15   24.74    1.72
   4   5 -15   24.88    2.02
   4   5 -14    0.12    0.45
   4   5 -14    0.28    0.52
   4   5 -14   -0.41    0.57
   4   5 -14    0.13    1.26
   4   5 -13  172.78    8.88
   4   5 -13  148.62    8.62
   4   5 -13  162.08    8.83
   4   5 -13  179.58    8.80
   4   5 -13  167.54    8.91
   4   5 -12    0.95    0.55
   4   5 -12    0.43    0.50
   4   5 -12    0.98    0.61
   4   5 -12    0.38    0.57
   4   5 -12    0.15    0.84
   4   5 -11   53.99    3.43
   4   5 -11   52.69    3.44
   4   5 -11   57.89    3.44
   4   5 -11   51.70    3.32
   4   5 -11   55.94    3.50
   4   5 -10    2.74    0.68
   4   5 -10    2.21    0.53
   4   5 -10    1.86    0.60
   4   5 -10    2.27    0.65
   4   5 -10    2.15    0.63
   4   5 -10    2.75    0.78
   4   5  -9    0.53    0.49
   4   5  -9    0.78    0.38
   4   5  -9   -0.25    0.55
   4   5  -9    0.05    0.37
   4   5  -9    0.38    0.41
   4   5  -9    0.13    0.42
   4   5  -9    0.14    0.53
   4   5  -9    0.29    0.62
   4   5  -8  219.25   10.60
   4   5  -8  187.86   10.19
   4   5  -8  194.96   10.34
   4   5  -8  183.09   10.19
   4   5  -8  210.77   10.43
   4   5  -8  206.43   10.54
   4   5  -8  199.31   10.28
   4   5  -8  201.22   10.38
   4   5  -8  204.21   10.44
   4   5  -8  205.17   10.49
   4   5  -7   26.66    1.99
   4   5  -7   23.92    1.71
   4   5  -7   24.51    1.80
   4   5  -7   28.57    2.02
   4   5  -7   23.30    1.73
   4   5  -7   24.50    1.81
   4   5  -7   24.60    1.82
   4   5  -7   28.73    1.89
   4   5  -7   24.62    1.92
   4   5  -7   23.39    1.70
   4   5  -6   51.96    3.10
   4   5  -6   46.77    2.80
   4   5  -6   47.89    2.83
   4   5  -6   52.47    3.12
   4   5  -6   44.54    2.85
   4   5  -6   46.25    2.85
   4   5  -6   44.23    2.87
   4   5  -6   49.53    2.92
   4   5  -6   45.04    2.97
   4   5  -6   47.47    2.83
   4   5  -5    1.59    0.61
   4   5  -5    1.79    0.39
   4   5  -5    2.09    0.44
   4   5  -5    2.12    0.50
   4   5  -4   15.44    1.15
   4   5  -4   15.50    2.11
   4   5  -3  298.69   16.29
   4   5  -3  307.18   16.58
   4   5  -2   47.46    3.77
   4   5  -2   41.40    3.43
   4   5  -1  266.09   14.94
   4   5  -1  288.37   15.28
   4   5   0    3.10    1.04
   4   5   0    4.47    1.17
   4   5   2  121.99    6.70
   4   5   3   64.52    4.52
   4   5   3   63.77    3.99
   4   5   4  717.37   36.30
   4   5   4  722.41   36.20
   4   5   4  703.75   35.73
   4   5   5  138.08    7.99
   4   5   5  125.57    7.54
   4   5   5  131.21    7.84
   4   5   6   32.69    2.73
   4   5   6   28.43    2.50
   4   5   7   48.80    3.90
   4   5   7   51.33    3.92
   4   5   7   58.20    4.14
   4   5   8   20.20    2.27
   4   5   8   19.93    2.16
   4   5   8   23.58    2.44
   4   5   9  123.85    7.85
   4   5   9  123.18    7.73
   4   5   9  120.71    6.32
   4   5  10    2.47    0.42
   4   5  10    4.74    1.31
   4   5  10    4.38    1.22
   4   5  11  381.40   19.73
   4   5  11  368.03   18.37
   4   5  11  345.13   17.97
   4   5  12    6.87    1.55
   4   5  12    7.32    0.88
   4   5  12    5.88    1.13
   4   5  13   91.31    5.23
   4   5  13   98.41    5.39
   4   5  13  102.09    7.28
   4   5  13   91.30    6.89
   4   5  14   24.90    1.82
   4   5  14   20.65    2.85
   4   5  15   20.31    1.65
   4   5  15   18.84    2.82
   4   5  16   38.26    2.59
   4   5  16   36.44    4.01
   4   5  17    3.81    0.78
   4   5  17    3.91    1.36
   4   5  17    4.40    0.88
   4   5  17    2.87    1.13
   4   5  18   92.40    5.37
   4   5  18   92.54    5.48
   4   5  18  103.42    5.97
   4   5  19    1.22    0.57
   4   5  19    0.79    0.55
   4   5  19    1.05    1.01
   4   5  20    6.98    0.94
   4   5  20   10.00    1.09
   4   5  20    9.46    1.38
   4   5  21   80.32    4.51
   4   5  21   84.11    4.92
   4   5  21   80.22    4.57
   4   5  22    0.27    0.38
   4   5  22    0.44    0.46
   4   5  22    0.92    0.42
   4   5  23   58.17    3.01
   4   5  23   48.45    3.19
   4   6 -17   18.35    1.26
   4   6 -16   15.14    1.21
   4   6 -16   15.44    1.08
   4   6 -15    0.10    0.43
   4   6 -15   -0.17    0.34
   4   6 -14  176.94    9.15
   4   6 -14  171.86    9.10
   4   6 -14  171.56    9.01
   4   6 -13    2.51    0.62
   4   6 -13    2.00    0.61
   4   6 -13    2.62    0.60
   4   6 -13    2.76    0.68
   4   6 -13    2.77    1.32
   4   6 -12   50.95    3.17
   4   6 -12   46.94    3.14
   4   6 -12   51.30    3.22
   4   6 -12   50.24    3.23
   4   6 -12   54.91    3.42
   4   6 -11   40.31    2.79
   4   6 -11   42.09    2.74
   4   6 -11   44.03    2.88
   4   6 -11   46.63    2.90
   4   6 -11   44.13    2.93
   4   6 -11   41.00    2.79
   4   6 -10   13.89    1.19
   4   6 -10   15.60    1.42
   4   6 -10   12.70    1.21
   4   6 -10   14.88    1.39
   4   6 -10   14.92    1.43
   4   6 -10   17.31    1.45
   4   6 -10   16.44    1.53
   4   6  -9  289.13   15.77
   4   6  -9  318.76   16.01
   4   6  -9  323.67   16.02
   4   6  -9  318.92   16.08
   4   6  -9  319.63   16.01
   4   6  -9  326.47   16.09
   4   6  -9  311.60   15.86
   4   6  -8    0.46    0.51
   4   6  -8    0.26    0.38
   4   6  -8    0.84    0.56
   4   6  -8    0.73    0.46
   4   6  -8    1.22    0.71
   4   6  -8   -0.06    0.41
   4   6  -8    0.71    0.53
   4   6  -8    0.21    0.64
   4   6  -7  170.92    8.41
   4   6  -7  157.22    8.18
   4   6  -7  156.06    8.06
   4   6  -7  157.48    8.10
   4   6  -7  145.40    8.05
   4   6  -7  149.74    8.09
   4   6  -7  149.16    8.18
   4   6  -7  152.72    8.22
   4   6  -7  145.61    8.12
   4   6  -6   27.36    1.88
   4   6  -6   23.67    1.89
   4   6  -6   26.93    1.90
   4   6  -6   29.11    2.14
   4   6  -6   26.02    1.85
   4   6  -6   25.96    1.85
   4   6  -6   27.34    1.97
   4   6  -6   28.51    1.94
   4   6  -6   28.02    2.06
   4   6  -5   80.87    4.40
   4   6  -5   74.49    4.11
   4   6  -5   66.07    3.96
   4   6  -5   69.10    4.12
   4   6  -5   78.77    4.39
   4   6  -5   71.58    4.07
   4   6  -5   67.93    4.02
   4   6  -5   75.06    4.16
   4   6  -5   74.11    4.15
   4   6  -5   73.25    4.12
   4   6  -5   69.47    4.21
   4   6  -4   72.52    3.96
   4   6  -4   65.12    3.68
   4   6  -4   63.64    3.59
   4   6  -4   60.88    3.67
   4   6  -4   64.12    3.68
   4   6  -4   58.82    3.59
   4   6  -4   63.94    3.68
   4   6  -4   66.53    3.69
   4   6  -4   62.88    5.06
   4   6  -4   61.72    3.77
   4   6  -3    2.20    0.44
   4   6  -3    2.25    0.97
   4   6  -3    1.45    0.63
   4   6  -3    1.88    0.45
   4   6  -2  172.39   10.86
   4   6  -2  182.78    9.29
   4   6  -1   11.32    0.97
   4   6   0   96.39    6.57
   4   6   0   98.58    5.24
   4   6   1  247.08   12.40
   4   6   1  237.71   13.63
   4   6   1  245.99   13.85
   4   6   2    1.30    1.00
   4   6   3  381.91   19.63
   4   6   3  342.76   19.23
   4   6   4    8.16    1.51
   4   6   4    6.85    1.50
   4   6   4    5.63    1.38
   4   6   5  149.70    7.41
   4   6   5  119.40    8.06
   4   6   5  148.11    8.80
   4   6   5  145.50    8.82
   4   6   5  143.00    8.66
   4   6   6   15.74    1.87
   4   6   6   18.71    2.15
   4   6   6   17.39    2.14
   4   6   6   15.50    1.23
   4   6   7    0.16    0.58
   4   6   7    1.20    0.85
   4   6   7    0.42    0.36
   4   6   8   23.73    2.51
   4   6   8   22.60    2.49
   4   6   8   19.65    1.46
   4   6   9    9.34    0.90
   4   6   9   11.27    1.76
   4   6   9   11.21    1.81
   4   6  10  521.56   27.00
   4   6  10  583.60   28.63
   4   6  10  538.07   26.78
   4   6  10  554.23   28.75
   4   6  10  528.37   26.90
   4   6  10  581.89   27.34
   4   6  11    0.60    0.37
   4   6  11    1.29    0.52
   4   6  11    0.70    0.96
   4   6  11    0.62    0.88
   4   6  11    1.01    0.46
   4   6  11    1.45    0.80
   4   6  12   54.01    3.27
   4   6  12   56.63    4.74
   4   6  12   59.22    3.43
   4   6  12   54.55    3.82
   4   6  13   33.69    2.29
   4   6  13   36.11    3.68
   4   6  13   34.93    2.83
   4   6  13   37.99    2.46
   4   6  14   18.83    1.57
   4   6  14   21.87    2.83
   4   6  14   22.16    1.74
   4   6  14   19.62    2.09
   4   6  15   15.42    1.37
   4   6  15   18.39    2.58
   4   6  15   15.36    1.48
   4   6  15   16.47    1.93
   4   6  16   11.41    1.11
   4   6  16    6.43    1.74
   4   6  16    8.34    1.13
   4   6  16    9.48    1.48
   4   6  17  274.05   13.70
   4   6  17  298.09   14.38
   4   6  18    0.56    0.50
   4   6  18    3.29    1.13
   4   6  19   23.05    1.76
   4   6  19   23.82    2.26
   4   6  20   34.41    2.31
   4   6  20   37.35    2.46
   4   6  20   36.56    2.77
   4   6  21    8.42    0.88
   4   6  21    9.09    0.98
   4   6  21    8.99    1.23
   4   6  22   23.42    1.56
   4   6  22   24.04    1.85
   4   6  22   23.29    1.48
   4   6  23    3.49    0.44
   4   6  23    3.27    0.62
   4   7 -16    0.29    0.31
   4   7 -15   69.88    3.81
   4   7 -15   66.75    3.65
   4   7 -14    0.60    0.38
   4   7 -14    1.61    0.50
   4   7 -13   15.42    1.58
   4   7 -13   16.13    1.37
   4   7 -13   16.62    1.43
   4   7 -13   19.18    1.41
   4   7 -12   51.68    3.27
   4   7 -12   55.29    3.34
   4   7 -12   54.31    3.25
   4   7 -12   50.36    3.40
   4   7 -11    0.06    0.49
   4   7 -11    0.13    0.51
   4   7 -11    0.54    0.47
   4   7 -11   -0.28    0.41
   4   7 -11    0.14    0.55
   4   7 -11   -0.84    1.01
   4   7 -10  129.14    7.53
   4   7 -10  145.21    7.81
   4   7 -10  150.76    7.78
   4   7 -10  140.89    7.65
   4   7 -10  150.68    7.88
   4   7 -10  152.61    7.80
   4   7 -10  147.82    7.80
   4   7 -10  146.16    7.81
   4   7  -9    0.76    0.55
   4   7  -9    0.55    0.43
   4   7  -9    0.42    0.59
   4   7  -9    0.14    0.43
   4   7  -9    0.12    0.51
   4   7  -9   -0.20    0.49
   4   7  -9    0.15    0.50
   4   7  -9   -0.42    0.65
   4   7  -8  219.27   10.97
   4   7  -8  193.43   10.63
   4   7  -8  209.60   10.78
   4   7  -8  230.65   10.87
   4   7  -8  203.87   10.70
   4   7  -8  207.69   10.90
   4   7  -8  195.61   10.68
   4   7  -8  203.04   10.82
   4   7  -8  205.35   10.77
   4   7  -8  196.95   10.75
   4   7  -7   96.72    5.26
   4   7  -7   95.62    5.27
   4   7  -7   91.36    5.32
   4   7  -7   87.01    5.18
   4   7  -7   99.86    5.34
   4   7  -7   87.15    5.29
   4   7  -7   97.15    5.50
   4   7  -7   96.05    5.32
   4   7  -6   32.44    2.33
   4   7  -6   38.39    2.63
   4   7  -6   35.71    2.40
   4   7  -6   35.71    2.41
   4   7  -6   36.28    2.44
   4   7  -6   32.19    2.27
   4   7  -6   37.41    2.42
   4   7  -6   34.33    2.41
   4   7  -5  118.11    6.13
   4   7  -5  109.62    6.12
   4   7  -5  124.37    6.42
   4   7  -5  110.01    6.10
   4   7  -5  110.97    6.15
   4   7  -5  102.67    5.96
   4   7  -5  115.84    6.13
   4   7  -5  107.69    6.14
   4   7  -4   -0.05    0.32
   4   7  -4   -0.15    0.62
   4   7  -4   -0.17    0.39
   4   7  -4    0.31    0.36
   4   7  -4   -0.12    0.43
   4   7  -4    0.79    0.43
   4   7  -4    0.23    0.42
   4   7  -4   -0.18    0.41
   4   7  -4   -0.43    0.55
   4   7  -3  110.05    5.44
   4   7  -3   96.19    5.31
   4   7  -3  100.99    5.42
   4   7  -3   98.32    5.37
   4   7  -3   99.19    5.40
   4   7  -3   90.92    5.39
   4   7  -3   90.29    5.28
   4   7  -2    1.16    0.42
   4   7  -2    1.07    0.44
   4   7  -2    1.20    0.45
   4   7  -1   32.57    2.21
   4   7  -1   34.23    2.20
   4   7  -1   38.29    3.56
   4   7  -1   35.32    2.46
   4   7  -1   32.68    2.17
   4   7   0  127.96    8.41
   4   7   0  117.77    8.17
   4   7   0  126.14    6.64
   4   7   1    0.20    0.41
   4   7   1   -0.22    0.98
   4   7   1   -0.42    0.89
   4   7   2   88.20    6.41
   4   7   3   19.05    2.58
   4   7   3   21.80    1.56
   4   7   4  301.93   15.50
   4   7   4  306.03   17.22
   4   7   4  339.72   17.48
   4   7   5    4.18    0.65
   4   7   5    4.74    1.39
   4   7   5    3.14    1.20
   4   7   6  104.57    7.31
   4   7   6  114.70    7.57
   4   7   6  110.57    5.91
   4   7   7   35.77    3.68
   4   7   7   45.50    3.06
   4   7   7   40.05    3.01
   4   7   7   47.26    3.94
   4   7   7   42.36    2.60
   4   7   8   32.78    3.27
   4   7   8   31.58    2.24
   4   7   8   37.11    2.17
   4   7   8   35.15    3.40
   4   7   8   26.97    2.44
   4   7   8   30.74    2.48
   4   7   9  249.60   13.51
   4   7   9  272.59   15.05
   4   7   9  273.74   13.37
   4   7   9  279.39   13.85
   4   7   9  253.21   13.36
   4   7  10    0.85    0.42
   4   7  10    1.03    0.56
   4   7  10    1.24    1.01
   4   7  10    0.63    0.41
   4   7  10    1.29    0.46
   4   7  10    2.00    0.83
   4   7  11   81.67    5.01
   4   7  11   91.00    6.47
   4   7  11   89.04    4.90
   4   7  11   91.30    5.36
   4   7  12   89.16    5.34
   4   7  12  103.64    5.70
   4   7  12  105.31    7.21
   4   7  12  106.53    5.57
   4   7  12  106.68    6.03
   4   7  13    6.03    0.77
   4   7  13    5.80    1.52
   4   7  13   10.17    1.03
   4   7  13    8.06    1.37
   4   7  14  149.79    8.20
   4   7  14  163.15    8.89
   4   7  14  158.79   10.22
   4   7  14  161.36    8.40
   4   7  15    0.90    0.45
   4   7  15    0.24    0.78
   4   7  15    1.27    0.57
   4   7  15    1.56    0.99
   4   7  16   24.29    1.81
   4   7  16   28.78    2.04
   4   7  16   24.38    2.42
   4   7  17    2.97    0.64
   4   7  17    2.79    0.72
   4   7  17    3.97    1.19
   4   7  18    5.99    0.79
   4   7  18    5.53    0.88
   4   7  19   91.80    5.23
   4   7  19   99.86    5.44
   4   7  19   99.09    5.81
   4   7  20    2.69    0.54
   4   7  20    1.44    0.89
   4   7  21   45.77    3.15
   4   7  21   50.60    2.91
   4   7  22    5.39    0.77
   4   7  22    5.66    0.89
   4   7  22    5.79    0.59
   4   7  23    5.49    0.73
   4   8 -15    1.48    0.36
   4   8 -14   31.24    1.91
   4   8 -14   27.62    1.76
   4   8 -13   24.89    1.80
   4   8 -13   26.36    1.73
   4   8 -12    0.42    0.42
   4   8 -12    0.12    0.47
   4   8 -11   81.95    4.62
   4   8 -11   73.64    4.70
   4   8 -11   81.47    4.66
   4   8 -11   84.57    4.61
   4   8 -10    0.94    0.67
   4   8 -10    0.68    0.42
   4   8 -10    1.31    0.64
   4   8 -10    1.13    0.60
   4   8 -10    0.88    0.45
   4   8 -10    0.65    0.46
   4   8 -10    1.67    0.97
   4   8  -9   22.42    1.67
   4   8  -9   21.77    1.78
   4   8  -9   20.30    1.70
   4   8  -9   18.88    1.64
   4   8  -9   21.22    1.78
   4   8  -9   24.18    1.79
   4   8  -9   19.77    1.74
   4   8  -8    0.12    0.48
   4   8  -8   -0.21    0.57
   4   8  -8    0.22    0.49
   4   8  -8    0.07    0.50
   4   8  -8    0.23    0.65
   4   8  -8   -0.50    0.57
   4   8  -8   -0.38    0.59
   4   8  -8   -0.06    0.53
   4   8  -7   11.76    1.46
   4   8  -7   11.15    1.22
   4   8  -7   11.89    1.27
   4   8  -7   12.20    1.28
   4   8  -7   12.93    1.30
   4   8  -7   11.23    1.22
   4   8  -7   12.31    1.42
   4   8  -7   13.08    1.31
   4   8  -7   12.07    1.25
   4   8  -6  145.17    7.90
   4   8  -6  146.28    7.67
   4   8  -6  135.25    7.64
   4   8  -6  142.16    7.88
   4   8  -6  142.00    7.72
   4   8  -6  140.87    7.72
   4   8  -6  146.09    7.66
   4   8  -6  145.89    7.69
   4   8  -6  133.63    7.56
   4   8  -5   16.69    1.71
   4   8  -5   18.24    1.53
   4   8  -5   15.62    1.48
   4   8  -5   18.08    1.55
   4   8  -5   15.70    1.48
   4   8  -5   16.31    1.68
   4   8  -5   19.71    1.57
   4   8  -5   16.18    1.49
   4   8  -5   15.29    1.43
   4   8  -4   70.16    4.33
   4   8  -4   73.04    4.10
   4   8  -4   70.15    4.06
   4   8  -4   75.95    4.16
   4   8  -4   69.14    4.09
   4   8  -4   71.10    4.08
   4   8  -4   57.99    3.92
   4   8  -4   63.93    3.92
   4   8  -4   70.17    4.34
   4   8  -3    0.23    0.43
   4   8  -3    0.89    0.47
   4   8  -3    0.34    0.67
   4   8  -3    0.76    0.50
   4   8  -3    1.16    0.51
   4   8  -3    0.40    0.49
   4   8  -3    0.29    0.50
   4   8  -2   43.51    2.68
   4   8  -2   42.30    4.06
   4   8  -2   35.86    2.54
   4   8  -2   40.43    2.61
   4   8  -1  121.34    6.71
   4   8  -1  121.77    6.70
   4   8  -1  126.01    8.59
   4   8  -1  126.21    6.70
   4   8  -1  123.17    6.76
   4   8  -1  126.55    6.74
   4   8  -1  138.55    8.97
   4   8   0   43.90    3.02
   4   8   0   44.64    2.70
   4   8   0   41.16    2.69
   4   8   0   43.94    4.37
   4   8   0   44.89    4.30
   4   8   0   46.02    2.73
   4   8   0   38.91    2.70
   4   8   0   40.76    2.68
   4   8   0   40.94    2.69
   4   8   1  230.82   11.93
   4   8   1  254.39   14.29
   4   8   1  220.04   13.85
   4   8   1  251.63   12.05
   4   8   1  235.70   11.94
   4   8   1  256.26   12.34
   4   8   1  221.04   12.00
   4   8   1  221.90   11.96
   4   8   1  232.54   11.99
   4   8   1  224.92   11.98
   4   8   2    2.09    0.56
   4   8   2    1.77    1.28
   4   8   2    1.23    0.50
   4   8   2    1.32    0.52
   4   8   2    1.91    0.53
   4   8   2    3.64    0.86
   4   8   2    1.79    0.57
   4   8   2    1.74    0.52
   4   8   3  249.15   11.82
   4   8   3  212.77   11.20
   4   8   3  247.83   13.57
   4   8   3  211.40   11.26
   4   8   3  213.34   11.21
   4   8   3  237.55   11.63
   4   8   3  206.84   11.26
   4   8   3  222.48   13.28
   4   8   4   25.10    1.79
   4   8   4   33.70    2.43
   4   8   4   25.41    2.08
   4   8   4   26.99    1.91
   4   8   4   29.71    3.36
   4   8   4   23.22    1.82
   4   8   4   26.76    1.85
   4   8   4   28.72    3.26
   4   8   4   26.46    1.96
   4   8   4   28.11    1.94
   4   8   5   43.48    2.65
   4   8   5   50.87    2.85
   4   8   5   51.61    4.46
   4   8   5   42.40    2.70
   4   8   5   43.66    4.24
   4   8   5   45.52    3.21
   4   8   5   44.48    3.01
   4   8   5   36.47    2.89
   4   8   5   42.80    2.77
   4   8   6  368.95   19.63
   4   8   6  395.97   19.57
   4   8   6  437.87   21.74
   4   8   6  380.53   21.55
   4   8   6  380.73   19.76
   4   8   6  426.50   20.06
   4   8   6  377.47   19.55
   4   8   7   80.63    4.79
   4   8   7   84.69    4.71
   4   8   7   87.06    6.36
   4   8   7   84.00    5.15
   4   8   7   83.85    6.35
   4   8   7   85.55    4.96
   4   8   7   80.06    4.67
   4   8   8   44.61    2.88
   4   8   8   52.13    4.46
   4   8   8   42.17    4.27
   4   8   8   53.35    3.42
   4   8   8   44.40    3.09
   4   8   8   46.17    2.91
   4   8   9    6.62    0.84
   4   8   9    5.98    0.91
   4   8   9    4.58    0.76
   4   8   9    7.34    1.56
   4   8   9    5.70    1.15
   4   8   9    5.88    0.95
   4   8   9    5.73    1.49
   4   8  10   74.72    4.37
   4   8  10   77.30    5.81
   4   8  10   77.04    4.69
   4   8  10   67.38    4.32
   4   8  10   67.91    4.07
   4   8  10   76.63    4.21
   4   8  11   67.84    3.93
   4   8  11   64.39    5.28
   4   8  11   58.61    3.83
   4   8  11   62.11    3.67
   4   8  11   62.24    3.66
   4   8  12    3.92    0.84
   4   8  12    4.26    1.33
   4   8  12    4.13    0.69
   4   8  13  182.39    9.70
   4   8  13  183.41    9.50
   4   8  13  167.82   11.19
   4   8  14    6.34    0.75
   4   8  14    4.48    1.53
   4   8  14    6.34    0.87
   4   8  15   70.87    4.16
   4   8  15   79.58    4.41
   4   8  16   32.25    2.18
   4   8  16   37.96    2.44
   4   8  16   34.11    2.87
   4   8  17   -0.19    0.36
   4   8  17    0.39    0.45
   4   8  17    0.21    0.86
   4   8  18   60.39    3.46
   4   8  18   50.80    3.20
   4   8  18   63.85    3.97
   4   8  19    0.45    0.34
   4   8  19    0.74    0.52
   4   8  19    0.26    0.80
   4   8  20   34.12    2.51
   4   8  20   39.71    2.32
   4   8  20   36.69    2.64
   4   8  20   31.86    2.08
   4   8  21    0.16    0.57
   4   8  21    0.25    0.37
   4   8  21    1.00    0.64
   4   8  22    8.30    0.94
   4   8  22   10.71    0.87
   4   8  22    9.11    1.03
   4   9 -14   14.38    1.04
   4   9 -13    1.00    0.64
   4   9 -13    0.95    0.38
   4   9 -12   43.00    2.70
   4   9 -12   45.45    2.64
   4   9 -11    7.38    0.92
   4   9 -11    7.04    0.84
   4   9 -10   27.83    1.91
   4   9 -10   28.96    2.81
   4   9 -10   27.17    1.96
   4   9 -10   31.05    2.13
   4   9 -10   31.81    2.09
   4   9  -9   25.54    1.80
   4   9  -9   24.90    1.89
   4   9  -9   25.61    2.44
   4   9  -9   23.40    1.90
   4   9  -9   24.15    1.84
   4   9  -9   22.88    1.78
   4   9  -8   26.47    1.93
   4   9  -8   23.31    1.95
   4   9  -8   26.37    2.16
   4   9  -8   25.55    1.94
   4   9  -8   22.32    2.00
   4   9  -8   27.68    2.05
   4   9  -8   29.05    2.04
   4   9  -7  194.56   10.40
   4   9  -7  199.76   10.21
   4   9  -7  191.78   10.22
   4   9  -7  189.99   10.26
   4   9  -7  192.67   10.19
   4   9  -7  187.89   10.33
   4   9  -7  194.53   10.30
   4   9  -7  199.79   10.25
   4   9  -6    0.44    0.78
   4   9  -6    0.62    0.58
   4   9  -6    0.70    0.58
   4   9  -6    0.21    0.57
   4   9  -6   -0.26    0.75
   4   9  -6    2.01    0.64
   4   9  -6    0.55    0.56
   4   9  -5   82.14    4.52
   4   9  -5   75.22    4.67
   4   9  -5   80.71    4.48
   4   9  -5   73.36    4.48
   4   9  -5   77.55    4.51
   4   9  -5   79.69    4.45
   4   9  -5   82.58    4.73
   4   9  -4   -0.12    0.43
   4   9  -4    0.55    0.54
   4   9  -4    0.09    0.80
   4   9  -4    0.14    0.54
   4   9  -4    0.65    0.80
   4   9  -4    0.15    0.52
   4   9  -4    0.69    0.54
   4   9  -3   71.33    4.66
   4   9  -3   75.82    4.41
   4   9  -3   76.08    4.47
   4   9  -3   80.15    4.76
   4   9  -3   70.29    4.40
   4   9  -3   71.60    4.32
   4   9  -3   75.51    4.42
   4   9  -2   78.06    4.72
   4   9  -2   80.35    4.80
   4   9  -2   81.83    4.71
   4   9  -2   88.84    5.13
   4   9  -2   82.75    4.84
   4   9  -2   88.23    4.82
   4   9  -2   77.56    4.71
   4   9  -1   12.04    1.19
   4   9  -1   13.51    2.48
   4   9  -1   12.01    1.25
   4   9  -1   11.40    1.18
   4   9  -1   10.40    1.22
   4   9  -1   10.13    2.19
   4   9  -1   11.41    1.19
   4   9  -1   10.67    1.55
   4   9   0  612.40   30.77
   4   9   0  601.02   30.77
   4   9   0  649.10   33.54
   4   9   0  618.28   33.28
   4   9   0  600.44   30.88
   4   9   0  674.34   31.39
   4   9   0  627.13   30.87
   4   9   1   26.15    1.89
   4   9   1   27.89    3.53
   4   9   1   27.49    1.99
   4   9   1   25.21    1.87
   4   9   1   27.14    2.29
   4   9   1   24.98    2.00
   4   9   1   25.46    1.97
   4   9   1   21.08    3.23
   4   9   1   24.43    2.34
   4   9   1   26.30    1.99
   4   9   2  221.52   11.23
   4   9   2  225.41   13.69
   4   9   2  210.36   13.48
   4   9   2  238.09   11.70
   4   9   2  205.61   11.36
   4   9   2  203.43   11.28
   4   9   2  239.85   11.91
   4   9   2  213.97   11.30
   4   9   2  220.39   11.33
   4   9   2  212.55   11.19
   4   9   3   95.00    5.85
   4   9   3  104.68    5.73
   4   9   3  110.69    7.94
   4   9   3  109.55    5.86
   4   9   3  101.02    5.73
   4   9   3  101.75    5.92
   4   9   3  112.84    6.22
   4   9   3  118.14    6.45
   4   9   4    7.93    0.92
   4   9   4    8.70    2.08
   4   9   4    9.97    1.15
   4   9   4    8.89    0.99
   4   9   4   11.06    1.77
   4   9   4    8.81    1.16
   4   9   4   10.90    1.36
   4   9   4   10.77    1.53
   4   9   4   10.62    1.10
   4   9   5  122.41    6.53
   4   9   5  117.69    6.68
   4   9   5  133.27    8.80
   4   9   5  131.36    7.02
   4   9   5  113.34    8.50
   4   9   5  130.06    7.21
   4   9   5  114.67    6.63
   4   9   6    4.99    0.80
   4   9   6    5.66    1.63
   4   9   6    4.76    0.86
   4   9   6    5.37    0.69
   4   9   6    3.68    1.43
   4   9   6    5.72    1.14
   4   9   6    3.55    1.46
   4   9   6    7.25    1.28
   4   9   7  193.64   10.30
   4   9   7  179.32   12.08
   4   9   7  217.64   10.71
   4   9   7  205.08   12.34
   4   9   7  202.21   10.47
   4   9   7  210.71   10.70
   4   9   7  194.10   10.17
   4   9   7  170.21   10.06
   4   9   8   34.80    2.63
   4   9   8   39.98    2.99
   4   9   8   42.50    4.12
   4   9   8   38.98    4.07
   4   9   8   36.39    2.98
   4   9   8   40.88    2.83
   4   9   8   36.99    2.53
   4   9   9  106.39    7.48
   4   9   9   98.65    6.00
   4   9   9   94.88    7.34
   4   9   9   95.81    5.77
   4   9   9  105.88    6.11
   4   9   9   98.19    5.54
   4   9  10   93.47    5.46
   4   9  10   86.18    6.91
   4   9  10   94.15    5.74
   4   9  10   90.79    5.48
   4   9  10   98.61    5.79
   4   9  10   95.12    5.28
   4   9  11   15.35    1.51
   4   9  11   12.92    1.69
   4   9  11   13.68    1.49
   4   9  11   17.26    2.55
   4   9  11   14.86    1.34
   4   9  12  195.01    9.68
   4   9  12  170.06   11.37
   4   9  12  201.08    9.99
   4   9  12  165.74    9.52
   4   9  12  169.96    9.26
   4   9  13   -0.08    0.62
   4   9  13    0.25    0.92
   4   9  13    1.87    1.04
   4   9  13    0.58    0.56
   4   9  13   -0.33    0.39
   4   9  14   49.97    3.63
   4   9  14   49.90    3.07
   4   9  15   12.48    1.66
   4   9  15   13.43    1.23
   4   9  16   14.71    1.77
   4   9  16   15.15    1.32
   4   9  17    2.55    1.06
   4   9  17    3.43    0.64
   4   9  18    3.64    1.01
   4   9  18    3.71    0.68
   4   9  19   93.32    5.39
   4   9  19   92.39    5.05
   4   9  20    5.12    0.94
   4   9  20    5.11    0.68
   4   9  21    6.57    0.91
   4   9  21    7.06    0.70
   4   9  22    3.36    0.53
   4  10 -13   11.94    0.87
   4  10 -12    0.88    0.37
   4  10 -11   42.30    2.58
   4  10 -11   42.26    2.63
   4  10 -10   30.06    2.07
   4  10 -10   29.97    2.05
   4  10  -9    0.23    0.39
   4  10  -9    1.22    1.45
   4  10  -9    0.61    0.50
   4  10  -9    0.92    0.56
   4  10  -9    0.29    0.43
   4  10  -8  149.29    7.55
   4  10  -8  128.26    7.87
   4  10  -8  138.83    7.53
   4  10  -8  142.62    7.66
   4  10  -8  145.60    7.63
   4  10  -7    4.94    0.80
   4  10  -7    5.87    2.41
   4  10  -7    4.83    0.84
   4  10  -7    4.34    0.92
   4  10  -7    7.11    0.93
   4  10  -7    5.99    0.95
   4  10  -6   21.00    1.98
   4  10  -6   22.68    1.85
   4  10  -6   25.99    1.89
   4  10  -6   22.93    2.03
   4  10  -6   21.93    1.92
   4  10  -6   26.61    1.96
   4  10  -6   22.40    2.61
   4  10  -5   25.07    2.20
   4  10  -5   23.81    2.13
   4  10  -5   24.84    1.95
   4  10  -5   23.97    2.39
   4  10  -5   24.75    2.03
   4  10  -5   25.22    2.01
   4  10  -4   47.92    3.44
   4  10  -4   52.29    3.51
   4  10  -4   51.00    3.45
   4  10  -4   51.09    3.31
   4  10  -4   50.33    3.27
   4  10  -4   46.10    3.05
   4  10  -3   32.89    2.67
   4  10  -3   34.41    2.52
   4  10  -3   34.86    2.62
   4  10  -3   37.19    2.78
   4  10  -3   35.04    2.47
   4  10  -3   30.58    2.34
   4  10  -3   33.08    2.34
   4  10  -2    0.21    0.51
   4  10  -2    0.63    0.57
   4  10  -2   -0.13    0.56
   4  10  -2   -0.40    0.82
   4  10  -2    1.33    0.63
   4  10  -2    0.74    0.61
   4  10  -2    0.57    0.88
   4  10  -2    0.40    0.83
   4  10  -1  130.28    7.14
   4  10  -1  137.33    7.21
   4  10  -1  127.64    7.34
   4  10  -1  111.02    9.17
   4  10  -1  133.05    7.35
   4  10  -1  136.79    7.32
   4  10  -1  131.91    7.24
   4  10   0    0.59    0.56
   4  10   0    0.20    0.56
   4  10   0    0.57    0.63
   4  10   0    0.31    1.21
   4  10   0    0.25    0.50
   4  10   0    0.31    1.06
   4  10   0    0.11    0.91
   4  10   1   23.53    1.78
   4  10   1   24.69    2.10
   4  10   1   22.89    3.27
   4  10   1   25.87    3.32
   4  10   1   21.04    1.73
   4  10   1   21.03    1.89
   4  10   1   22.35    2.28
   4  10   1   22.31    2.23
   4  10   1   21.79    1.85
   4  10   2   24.02    1.89
   4  10   2   27.97    3.50
   4  10   2   26.86    1.94
   4  10   2   29.18    2.40
   4  10   2   27.18    2.46
   4  10   2   25.72    2.11
   4  10   2   27.18    2.38
   4  10   2   22.28    2.43
   4  10   2   22.13    3.31
   4  10   2   28.19    2.50
   4  10   2   27.75    2.07
   4  10   3    3.39    2.15
   4  10   3    0.30    1.02
   4  10   3    0.77    0.87
   4  10   3    1.51    0.86
   4  10   3    1.27    1.60
   4  10   3    0.24    0.55
   4  10   3    0.30    0.47
   4  10   3    1.36    0.52
   4  10   3    1.50    0.98
   4  10   4  168.74    9.31
   4  10   4  181.12   11.79
   4  10   4  199.21   10.08
   4  10   4  163.60    9.56
   4  10   4  198.07    9.94
   4  10   4  167.37    9.67
   4  10   4  193.43   10.10
   4  10   4  184.32    9.54
   4  10   5    0.58    0.54
   4  10   5   -0.57    1.25
   4  10   5    0.90    2.14
   4  10   5   -0.10    0.86
   4  10   5    0.23    0.90
   4  10   5    0.44    0.44
   4  10   5    3.02    1.28
   4  10   6   96.24    5.36
   4  10   6   97.84    7.51
   4  10   6   91.15    5.66
   4  10   6  101.32    5.92
   4  10   6  105.08    6.12
   4  10   6   86.57    7.37
   4  10   6  102.85    5.59
   4  10   7   14.92    2.52
   4  10   7   10.08    1.43
   4  10   7   13.77    2.36
   4  10   7    9.17    1.14
   4  10   7   11.24    1.61
   4  10   8    2.48    0.70
   4  10   8    1.90    1.23
   4  10   8    1.04    0.65
   4  10   8    3.69    0.96
   4  10   8    0.87    1.08
   4  10   8    3.95    1.11
   4  10   9   13.78    1.53
   4  10   9   15.75    2.58
   4  10   9   16.71    1.74
   4  10   9   13.62    2.48
   4  10   9   15.72    1.84
   4  10   9   17.62    1.51
   4  10  10   31.86    3.79
   4  10  10   34.11    2.86
   4  10  10   36.69    2.74
   4  10  10   34.18    2.86
   4  10  10   37.93    2.48
   4  10  11  173.88    9.37
   4  10  11  141.45   10.93
   4  10  11  179.38    9.70
   4  10  11  171.82    9.39
   4  10  11  182.11    9.70
   4  10  11  175.11    9.17
   4  10  12    0.82    0.48
   4  10  12    0.62    0.94
   4  10  12   -0.55    0.72
   4  10  12    0.96    0.90
   4  10  13    7.27    1.36
   4  10  13    7.69    1.06
   4  10  13    6.43    0.77
   4  10  13    9.43    1.45
   4  10  14   50.44    3.40
   4  10  14   41.09    2.89
   4  10  14   40.74    2.64
   4  10  14   50.25    3.41
   4  10  15    7.78    1.35
   4  10  15    6.92    0.78
   4  10  15    8.31    1.37
   4  10  16   32.95    2.76
   4  10  16   35.35    2.26
   4  10  16   40.09    2.89
   4  10  17    0.99    0.96
   4  10  17    1.20    0.42
   4  10  17    0.85    0.79
   4  10  18   27.05    2.12
   4  10  18   22.03    1.61
   4  10  18   27.15    2.11
   4  10  19   -0.19    0.67
   4  10  19    1.37    0.38
   4  10  19    1.29    0.65
   4  10  20   11.22    1.12
   4  10  20    8.60    0.76
   4  10  20    8.73    1.06
   4  10  21   20.98    1.53
   4  10  21   19.98    1.53
   4  11 -11    4.14    0.50
   4  11 -10    0.61    0.36
   4  11  -9   97.39    5.24
   4  11  -9  108.10    5.47
   4  11  -9   96.66    5.56
   4  11  -8    4.23    0.63
   4  11  -8    2.94    1.58
   4  11  -8    3.40    0.67
   4  11  -7   73.13    4.16
   4  11  -7   74.92    4.18
   4  11  -7   71.77    4.28
   4  11  -7   73.60    4.44
   4  11  -6    3.53    0.68
   4  11  -6    0.51    2.10
   4  11  -6    3.17    0.72
   4  11  -6    2.71    0.80
   4  11  -6    2.62    1.36
   4  11  -6    3.39    0.77
   4  11  -5    1.66    0.83
   4  11  -5    2.95    2.70
   4  11  -5    2.35    0.83
   4  11  -5    4.66    1.41
   4  11  -5    1.26    0.68
   4  11  -5    1.60    0.59
   4  11  -4   75.08    4.65
   4  11  -4   76.00    5.40
   4  11  -4   75.71    4.41
   4  11  -4   80.29    4.62
   4  11  -4   80.10    4.69
   4  11  -4   76.11    4.70
   4  11  -4   71.61    4.28
   4  11  -3    0.48    0.46
   4  11  -3    0.18    0.82
   4  11  -3    0.47    0.78
   4  11  -3    0.75    0.55
   4  11  -3    0.40    0.59
   4  11  -3    1.30    1.41
   4  11  -3   -0.71    3.00
   4  11  -2   88.40    5.62
   4  11  -2  100.52    5.41
   4  11  -2   87.53    6.21
   4  11  -2   92.92    5.32
   4  11  -2   96.25    5.54
   4  11  -2   97.29    5.70
   4  11  -2   89.34    5.32
   4  11  -2  102.92    5.80
   4  11  -1    9.96    1.42
   4  11  -1    8.03    1.03
   4  11  -1    8.36    1.02
   4  11  -1   10.40    3.03
   4  11  -1    7.31    1.30
   4  11  -1    6.24    1.08
   4  11  -1    5.97    2.02
   4  11  -1    6.93    0.96
   4  11   0   19.45    1.57
   4  11   0   17.07    1.70
   4  11   0   16.82    1.50
   4  11   0   14.51    2.77
   4  11   0   12.42    2.53
   4  11   0   20.00    1.66
   4  11   1   25.29    1.83
   4  11   1   22.57    1.78
   4  11   1   21.54    3.45
   4  11   1   21.68    1.99
   4  11   1   19.64    3.11
   4  11   1   20.05    2.18
   4  11   1   24.54    1.94
   4  11   2    1.52    0.62
   4  11   2    0.56    0.50
   4  11   2    0.60    1.03
   4  11   2    3.06    2.93
   4  11   2    0.85    0.53
   4  11   2    0.85    0.64
   4  11   2   -0.32    0.93
   4  11   2    1.02    0.91
   4  11   3   58.05    3.42
   4  11   3   50.45    5.21
   4  11   3   52.60    3.37
   4  11   3   58.76    4.03
   4  11   3   56.19    3.69
   4  11   3   61.54    3.96
   4  11   3   51.07    4.36
   4  11   3   55.90    3.99
   4  11   4    3.38    0.85
   4  11   4    7.07    1.71
   4  11   4    5.66    2.04
   4  11   4    4.21    1.21
   4  11   4    3.68    1.11
   4  11   4    4.81    1.28
   4  11   4    4.00    0.71
   4  11   5  133.07    7.40
   4  11   5  119.20    9.50
   4  11   5  130.64    9.83
   4  11   5  141.94    8.08
   4  11   5  141.67    7.94
   4  11   5  152.76    8.21
   4  11   5  145.50    7.65
   4  11   6   35.29    2.35
   4  11   6   36.45    2.98
   4  11   6   34.06    4.05
   4  11   6   36.74    2.83
   4  11   6   28.04    3.82
   4  11   6   40.88    3.08
   4  11   6   36.82    2.56
   4  11   7   27.36    3.50
   4  11   7   29.52    3.72
   4  11   7   30.65    2.64
   4  11   7   28.50    2.47
   4  11   7   29.74    2.62
   4  11   7   30.03    2.20
   4  11   8   52.31    4.98
   4  11   8   48.02    5.00
   4  11   8   54.70    3.70
   4  11   8   54.41    3.86
   4  11   8   55.81    3.42
   4  11   9    0.34    0.51
   4  11   9   -0.18    0.84
   4  11   9   -0.29    0.84
   4  11   9    1.30    0.87
   4  11  10    0.72    0.55
   4  11  10    0.61    0.74
   4  11  10   -0.21    0.92
   4  11  11    6.75    0.88
   4  11  11    6.18    1.09
   4  11  11    5.08    1.16
   4  11  12   14.81    1.58
   4  11  12   16.88    1.40
   4  11  12   19.27    1.93
   4  11  13   49.93    3.41
   4  11  13   58.78    3.77
   4  11  14    1.46    1.05
   4  11  14    1.20    0.69
   4  11  14    3.44    1.01
   4  11  15   66.58    3.83
   4  11  15   59.99    3.78
   4  11  16    0.24    0.80
   4  11  16    0.16    0.74
   4  11  17   36.68    2.48
   4  11  17   27.71    2.34
   4  11  18    5.46    0.91
   4  11  18    5.19    0.92
   4  11  19    2.97    0.69
   4  11  19    2.94    0.65
   4  11  20   10.34    1.01
   4  11  20    9.23    0.94
   4  12  -9    3.64    0.48
   4  12  -8  138.19    7.28
   4  12  -8  152.53    7.46
   4  12  -7   21.07    1.46
   4  12  -7   21.73    1.58
   4  12  -6   48.61    2.89
   4  12  -6   49.75    3.03
   4  12  -5   70.06    3.88
   4  12  -5   59.77    3.93
   4  12  -5   73.03    4.03
   4  12  -4    0.75    0.62
   4  12  -4    0.45    0.44
   4  12  -4    1.10    0.71
   4  12  -4    0.27    0.57
   4  12  -3  137.56    7.99
   4  12  -3  168.51    7.92
   4  12  -3  159.34    8.10
   4  12  -3  150.19    7.82
   4  12  -3  155.74    8.15
   4  12  -3  129.59    7.71
   4  12  -2   -0.06    0.43
   4  12  -2   -0.08    0.77
   4  12  -2    0.06    0.54
   4  12  -2    0.49    0.50
   4  12  -2    0.17    0.74
   4  12  -2   -0.30    0.64
   4  12  -1   42.65    2.95
   4  12  -1   35.65    2.76
   4  12  -1   39.69    2.52
   4  12  -1   36.85    2.46
   4  12  -1   35.51    2.66
   4  12  -1   37.64    2.53
   4  12   0   24.81    2.05
   4  12   0   22.16    2.17
   4  12   0   26.53    1.91
   4  12   0   25.03    1.87
   4  12   0   26.68    2.28
   4  12   0   25.64    1.94
   4  12   1    5.69    0.90
   4  12   1    5.49    0.81
   4  12   1    5.00    0.94
   4  12   1    5.53    0.82
   4  12   2   73.34    4.28
   4  12   2   77.14    4.47
   4  12   3    3.19    1.12
   4  12   3    3.43    0.66
   4  12   3    3.72    1.07
   4  12   4   99.44    5.43
   4  12   4   99.16    5.97
   4  12   4  107.61    6.00
   4  12   4   87.32    5.86
   4  12   5   41.05    2.63
   4  12   5   40.67    3.19
   4  12   5   42.92    3.13
   4  12   5   41.09    3.19
   4  12   5   44.43    2.89
   4  12   6   16.28    1.97
   4  12   6   20.00    1.49
   4  12   6   18.36    2.02
   4  12   6   21.91    2.03
   4  12   6   20.20    1.71
   4  12   7   33.68    2.73
   4  12   7   33.23    2.64
   4  12   7   29.83    2.71
   4  12   7   35.12    2.41
   4  12   8   50.31    3.56
   4  12   8   49.69    3.42
   4  12   8   46.41    3.50
   4  12   8   50.55    3.16
   4  12   9    2.22    0.64
   4  12   9    0.77    0.88
   4  12   9    3.20    0.95
   4  12   9    1.17    0.91
   4  12  10    2.77    0.61
   4  12  10    0.19    0.92
   4  12  10    1.12    0.76
   4  12  10    1.14    0.87
   4  12  11   41.86    3.10
   4  12  11   41.13    2.90
   4  12  11   45.22    2.72
   4  12  11   39.32    3.10
   4  12  12   23.88    1.95
   4  12  12   25.35    1.75
   4  12  12   22.28    2.13
   4  12  13    0.37    0.60
   4  12  13    0.25    0.73
   4  12  13   -0.21    0.43
   4  12  14   71.18    4.39
   4  12  14   88.15    4.79
   4  12  15    0.31    0.46
   4  12  15    0.55    0.67
   4  12  16   14.20    1.39
   4  12  17    3.21    0.72
   4  12  18   -0.08    0.43
   4  12  19    2.97    0.57
   4  13  -6   37.89    2.18
   4  13  -4   42.51    2.45
   4  13  -4   34.05    2.35
   4  13  -3   14.43    1.12
   4  13  -3   11.37    1.20
   4  13  -3   12.46    1.18
   4  13  -2   15.77    1.46
   4  13  -2   19.80    1.43
   4  13  -2   20.41    1.65
   4  13  -1   12.52    1.30
   4  13  -1   14.86    1.19
   4  13  -1   10.78    1.35
   4  13  -1   13.68    1.15
   4  13   0    3.76    0.65
   4  13   0    4.75    0.87
   4  13   0    3.91    0.64
   4  13   0    3.21    0.88
   4  13   1   25.23    2.06
   4  13   1   26.00    1.82
   4  13   1   25.14    2.10
   4  13   1   28.24    1.92
   4  13   2   -0.35    0.44
   4  13   2    0.29    0.39
   4  13   2    0.29    0.70
   4  13   3   23.50    1.66
   4  13   3   23.43    1.79
   4  13   4   10.89    1.04
   4  13   4   12.90    1.50
   4  13   5    5.58    0.87
   4  13   5    4.62    0.67
   4  13   5    5.70    1.11
   4  13   6  166.52    9.20
   4  13   6  188.70    9.78
   4  13   6  194.05    9.77
   4  13   6  165.33    9.64
   4  13   6  205.19    9.58
   4  13   7    6.54    1.20
   4  13   7    8.10    1.18
   4  13   7    7.79    0.94
   4  13   7    5.26    1.10
   4  13   8   18.96    1.82
   4  13   8   19.97    1.78
   4  13   8   15.52    1.70
   4  13   8   20.60    1.56
   4  13   9    0.54    0.46
   4  13   9    0.08    0.73
   4  13   9    0.43    0.67
   4  13   9    0.08    0.65
   4  13  10   24.90    2.10
   4  13  10   23.50    2.03
   4  13  10   26.14    1.81
   4  13  10   25.27    2.02
   4  13  11   21.50    1.76
   4  13  11   21.66    1.94
   4  13  11   24.14    1.62
   4  13  11   19.03    1.82
   4  13  12    1.04    0.77
   4  13  12    1.79    0.66
   4  13  12    1.70    0.74
   4  13  12    2.08    0.45
   4  13  13   44.39    2.82
   4  13  13   36.70    2.52
   4  13  13   39.51    2.70
   4  13  14    0.29    0.58
   4  13  14   -0.36    0.44
   4  13  14    0.42    0.53
   4  13  15    8.05    0.97
   4  13  15    8.62    0.81
   4  13  16    3.34    0.69
   4  13  16    3.20    0.58
   4  13  17    4.55    0.68
   4  14  -3    1.94    0.35
   4  14  -2   43.51    2.23
   4  14  -2   32.34    2.24
   4  14  -1    1.68    0.42
   4  14  -1    2.05    0.53
   4  14   0   20.07    1.27
   4  14   0   16.47    1.41
   4  14   0   15.92    1.21
   4  14   1    1.81    0.41
   4  14   1    1.73    0.50
   4  14   1    1.41    0.39
   4  14   1    0.93    0.55
   4  14   2    1.83    0.46
   4  14   2    1.68    0.57
   4  14   2    3.06    0.47
   4  14   2    1.88    0.64
   4  14   3    5.48    0.63
   4  14   3    5.81    0.82
   4  14   3    5.65    0.73
   4  14   4    0.41    0.53
   4  14   4    0.09    0.29
   4  14   5   31.59    1.99
   4  14   5   36.79    2.46
   4  14   5   39.63    2.30
   4  14   6   16.39    1.51
   4  14   6   17.76    1.38
   4  14   7   46.00    3.07
   4  14   7   52.12    2.96
   4  14   8    4.33    0.64
   4  14   8    3.53    0.77
   4  14   9    6.33    0.90
   4  14   9    6.37    0.73
   4  14  10   22.01    1.71
   4  14  10   20.64    1.63
   4  14  10   22.10    1.49
   4  14  11    1.81    0.61
   4  14  11    0.72    0.52
   4  14  11    0.95    0.36
   4  14  12   19.37    1.51
   4  14  12   19.31    1.41
   4  14  12   18.04    1.18
   4  14  13    0.50    0.38
   4  14  13    0.40    0.45
   4  14  14    8.05    0.86
   4  15   1    1.01    0.31
   4  15   2    2.16    0.45
   4  15   2    2.01    0.34
   4  15   3    2.15    0.47
   4  15   3    2.04    0.37
   4  15   6   28.87    1.68
   4  15   6   24.31    1.77
   4  15   7    4.09    0.65
   4  15   7    4.70    0.55
   4  15   8    3.44    0.60
   4  15   8    4.80    0.53
   4  15   9   13.80    0.93
   4  15   9   11.75    1.02
   4  15  10    0.73    0.34
   4  15  10    0.70    0.22
   4  15  11   13.55    1.02
  -5  11   6    0.92    0.25
  -5  11   5   19.51    1.24
  -5  11   4    1.05    0.33
  -5  11   4    1.04    0.31
  -5  11   3    1.35    0.34
  -5  11   2   18.90    1.25
  -5  11   0   54.01    2.89
  -5  11   0   51.50    2.89
  -5  11  -1    3.03    0.40
  -5  11  -1    2.30    0.32
  -5  11  -2   30.26    1.65
  -5  11  -2   28.12    1.68
  -5  11  -3   13.02    0.85
  -5  11  -4    0.06    0.16
  -5  10  10   20.39    1.31
  -5  10   9    1.65    0.38
  -5  10   8   42.37    2.28
  -5  10   8   36.54    2.15
  -5  10   7    0.76    0.29
  -5  10   7    0.97    0.35
  -5  10   6   17.06    1.21
  -5  10   6   18.41    1.24
   5 -10  -6   16.29    1.27
  -5  10   5   26.00    1.75
   5 -10  -5   28.56    1.90
   5 -10  -4    0.74    0.40
  -5  10   4    0.79    0.39
  -5  10   3   91.47    4.93
   5 -10  -2   -0.25    0.36
  -5  10   2    0.13    0.36
  -5  10   2   -0.13    0.28
   5 -10  -1   25.65    1.73
  -5  10   1   26.32    1.67
  -5  10   1   21.05    1.47
   5 -10   0    2.11    0.50
  -5  10   0    2.94    0.45
   5 -10   1    6.52    0.78
  -5  10  -1    6.43    0.72
  -5  10  -1    6.35    0.67
  -5  10  -2   43.89    2.53
   5 -10   2   43.02    2.62
  -5  10  -2   43.55    2.55
   5 -10   3    0.77    0.34
  -5  10  -3    0.61    0.35
  -5  10  -3    1.11    0.40
  -5  10  -4  114.83    5.69
  -5  10  -4  104.28    5.62
  -5  10  -5    0.91    0.35
  -5  10  -6    3.48    0.46
  -5  10  -6    2.29    0.32
  -5  10  -7    4.71    0.51
  -5   9  13    0.21    0.22
  -5   9  13    0.03    0.33
  -5   9  12   11.44    0.84
  -5   9  12    9.79    0.90
  -5   9  11   27.05    1.62
  -5   9  11   22.91    1.69
  -5   9  11   23.27    1.49
  -5   9  10   -0.65    0.62
  -5   9  10   -0.03    0.29
  -5   9   9   64.04    3.95
  -5   9   9   66.13    3.76
  -5   9   8    0.81    0.42
   5  -9  -8    0.20    0.33
  -5   9   8    0.33    0.31
  -5   9   8    0.31    0.57
  -5   9   8   -0.14    0.36
  -5   9   7   44.28    2.58
   5  -9  -7   39.18    2.53
  -5   9   7   44.03    2.49
  -5   9   7   36.81    2.60
  -5   9   6   27.29    1.84
   5  -9  -6   25.72    1.86
  -5   9   6   27.47    1.80
  -5   9   5    0.14    0.36
   5  -9  -5    0.06    0.38
  -5   9   5   -0.24    0.43
  -5   9   4  118.07    6.59
   5  -9  -4  126.53    6.79
  -5   9   4  133.00    6.70
  -5   9   3    0.17    0.38
  -5   9   3   -0.26    0.47
  -5   9   2  146.56    7.86
  -5   9   2  162.96    8.11
   5  -9  -1   56.95    3.45
  -5   9   1   54.75    3.20
  -5   9   1   56.85    3.35
   5  -9   0    3.66    0.71
  -5   9   0    4.12    0.62
   5  -9   1   50.55    3.10
  -5   9  -1   49.80    2.99
  -5   9  -1   47.52    2.89
   5  -9   2    0.06    0.44
  -5   9  -2   -0.25    0.41
  -5   9  -2   -0.05    0.40
   5  -9   3   92.88    5.04
  -5   9  -3   95.72    4.95
  -5   9  -3   92.15    4.93
  -5   9  -3   83.38    4.76
   5  -9   4    8.49    0.96
  -5   9  -4   10.60    0.94
  -5   9  -4    9.99    0.98
  -5   9  -4   10.38    0.88
   5  -9   5   23.72    1.71
  -5   9  -5   24.08    1.66
  -5   9  -5   27.44    1.76
  -5   9  -5   26.90    1.68
  -5   9  -6   17.71    1.29
  -5   9  -6   15.93    1.20
  -5   9  -7    4.86    0.60
  -5   9  -8   44.39    2.54
  -5   9  -9   11.09    0.86
  -5   9  -9   10.25    0.84
  -5   9 -10   58.99    3.13
  -5   9 -10   58.46    3.12
  -5   9 -11    0.22    0.19
  -5   8  15   39.56    2.15
  -5   8  14    2.67    0.40
  -5   8  14    2.52    0.40
  -5   8  13   13.72    1.04
  -5   8  13   12.71    0.99
  -5   8  12   43.67    2.55
  -5   8  12   41.84    2.51
  -5   8  11    0.72    0.44
  -5   8  11    0.25    0.37
  -5   8  10   73.97    4.04
  -5   8  10   67.51    3.94
  -5   8   9    4.55    0.59
   5  -8  -9    5.45    0.68
  -5   8   8   44.28    2.67
  -5   8   8   49.73    2.82
   5  -8  -8   43.01    2.77
  -5   8   7   78.57    4.38
   5  -8  -7   75.19    4.33
  -5   8   7   73.57    4.20
  -5   8   6    1.78    0.51
  -5   8   6    0.54    0.53
   5  -8  -6    1.49    0.53
  -5   8   5   11.25    1.13
  -5   8   5   11.44    1.13
   5  -8  -5   12.20    1.23
  -5   8   4   11.77    1.10
   5  -8  -4   11.64    1.17
  -5   8   4    9.78    1.07
  -5   8   3   69.51    4.04
   5  -8  -3   66.84    4.02
  -5   8   3   74.32    4.15
  -5   8   2    7.29    0.86
   5  -8  -2    6.89    0.87
  -5   8   2    8.88    1.00
  -5   8   1   27.73    1.92
   5  -8  -1   28.34    2.15
   5  -8  -1   28.77    1.99
  -5   8   1   30.44    2.14
  -5   8   0  174.58    9.70
   5  -8   0  204.92   10.12
   5  -8   0  200.22    9.86
   5  -8   1    2.63    0.70
   5  -8   1    1.31    0.46
   5  -8   2  132.63    7.13
  -5   8  -2  121.17    6.81
   5  -8   2  131.73    6.89
  -5   8  -2  139.82    7.06
   5  -8   3   11.32    1.21
  -5   8  -3   10.98    1.12
  -5   8  -3   12.50    1.08
   5  -8   4   41.29    2.69
  -5   8  -4   40.96    2.59
  -5   8  -4   40.14    2.52
  -5   8  -5  103.07    5.58
   5  -8   5  103.29    5.67
  -5   8  -5  102.43    5.57
   5  -8   6    2.03    0.52
  -5   8  -6    2.42    0.56
  -5   8  -6    1.99    0.48
  -5   8  -7   53.61    3.16
  -5   8  -8    0.05    0.43
  -5   8  -8    0.28    0.41
  -5   8  -9  157.38    8.09
  -5   8  -9  154.64    8.07
  -5   8 -10   27.39    1.74
  -5   8 -10   25.16    1.69
  -5   8 -11   10.31    0.89
  -5   8 -11   11.07    0.86
  -5   8 -12   36.38    2.16
  -5   8 -12   46.71    2.33
   5  -7 -16    7.72    0.71
  -5   7  15    2.87    0.42
  -5   7  14    5.95    0.65
  -5   7  13   98.67    5.27
  -5   7  12    1.60    0.50
  -5   7  12    1.08    0.48
  -5   7  11   97.47    5.34
  -5   7  11   95.42    5.31
  -5   7  10    4.42    0.81
  -5   7  10    4.23    0.75
  -5   7   9   29.68    2.05
   5  -7  -9   28.28    1.87
  -5   7   9   23.88    1.72
   5  -7  -8   61.52    3.67
  -5   7   8   62.65    3.58
   5  -7  -7    6.36    0.86
  -5   7   7    5.53    0.76
  -5   7   6   41.84    2.80
   5  -7  -6   40.12    2.78
   5  -7  -6   41.96    4.74
  -5   7   6   44.28    2.73
  -5   7   5    7.21    0.95
   5  -7  -5    6.89    0.94
  -5   7   5    7.79    0.92
   5  -7  -5    6.56    0.89
   5  -7  -5    4.96    1.75
  -5   7   5    6.08    1.58
  -5   7   4   28.62    2.04
   5  -7  -4   27.01    2.06
   5  -7  -4   23.59    3.48
  -5   7   4   26.95    2.01
   5  -7  -4   27.77    1.97
  -5   7   4   21.84    3.65
  -5   7   4   17.68    2.89
  -5   7   3   14.51    1.38
   5  -7  -3   14.64    1.44
  -5   7   3   16.09    1.45
   5  -7  -3   16.28    1.39
  -5   7   3   19.90    3.22
   5  -7  -3   14.23    2.72
  -5   7   3   18.18    2.63
  -5   7   2   16.73    3.10
  -5   7   2   20.32    1.63
  -5   7   2   21.77    1.73
   5  -7  -2   20.37    1.60
  -5   7   2   19.32    2.87
   5  -7  -2   13.22    2.72
  -5   7   1  192.21   10.27
   5  -7  -1  195.95   13.03
  -5   7   1  202.73   10.43
  -5   7   1  202.85   13.53
   5  -7  -1  198.76   10.31
  -5   7   0    5.14    0.74
  -5   7   0    7.64    2.08
   5  -7   0    5.44    0.80
   5  -7   0    4.67    1.72
   5  -7   1   24.69    3.30
  -5   7  -1   23.84    1.74
   5  -7   1   26.19    2.00
   5  -7   1   26.91    1.87
  -5   7  -1   26.21    3.74
  -5   7  -1   22.14    3.13
   5  -7   2    7.67    1.01
  -5   7  -2    9.06    1.06
   5  -7   2    9.27    0.98
  -5   7  -2   10.28    2.36
  -5   7  -2    8.57    1.84
   5  -7   3    1.72    0.59
  -5   7  -3    3.14    1.30
  -5   7  -3    1.64    0.56
   5  -7   3    1.11    0.47
  -5   7  -3    1.82    1.04
  -5   7  -4    0.44    0.46
  -5   7  -4    1.71    1.17
   5  -7   4    0.54    0.37
   5  -7   4    0.56    0.48
  -5   7  -4    0.50    0.82
  -5   7  -5   -0.18    0.42
   5  -7   5    0.07    0.42
   5  -7   5   -0.10    0.35
   5  -7   6   67.48    3.81
  -5   7  -6   62.50    3.69
   5  -7   6   61.74    3.63
   5  -7   7    1.36    0.44
  -5   7  -7    1.58    0.45
   5  -7   7    1.50    0.44
  -5   7  -8   28.31    1.90
   5  -7   8   23.21    1.66
  -5   7  -9   26.52    1.84
  -5   7  -9   25.16    1.85
  -5   7 -10    4.74    0.70
  -5   7 -10    4.14    0.71
  -5   7 -11  131.08    7.01
  -5   7 -11  138.59    7.12
  -5   7 -12    1.21    0.44
  -5   7 -12    1.21    0.37
  -5   7 -14   14.86    1.05
  -5   7 -15   31.70    1.76
   5  -6 -17   17.50    1.31
  -5   6  17   24.92    1.34
  -5   6  16    5.81    0.63
  -5   6  15    2.11    0.38
  -5   6  15    0.81    0.43
  -5   6  14   18.46    1.35
  -5   6  14   19.18    1.43
  -5   6  13    8.85    0.91
  -5   6  13    8.02    0.95
  -5   6  12   87.55    4.90
  -5   6  11   16.57    1.46
  -5   6  10   38.94    2.64
  -5   6   9   55.75    3.25
   5  -6  -9   44.27    2.95
  -5   6   8    0.51    0.62
  -5   6   8   -0.05    0.41
   5  -6  -8   -1.33    1.23
   5  -6  -8    0.31    0.44
   5  -6  -8   -0.35    0.97
   5  -6  -7  174.46    9.12
  -5   6   7  178.29    9.04
   5  -6  -6   13.33    1.30
  -5   6   6   13.68    1.28
   5  -6  -6   14.03    1.31
   5  -6  -6   17.26    2.91
  -5   6   6   14.26    2.30
  -5   6   5   37.17    2.57
   5  -6  -5   36.20    2.50
   5  -6  -5   31.71    4.10
  -5   6   5   34.65    2.44
   5  -6  -5   35.70    2.41
  -5   6   5   33.99    3.75
  -5   6   4   67.48    4.11
   5  -6  -4   70.81    4.14
   5  -6  -4   70.39    6.37
  -5   6   4   66.51    4.06
   5  -6  -4   67.90    4.03
  -5   6   4   67.08    5.78
  -5   6   3    3.79    0.76
  -5   6   3    3.24    0.73
   5  -6  -3    2.76    0.65
   5  -6  -3    2.40    1.47
   5  -6  -3    2.66    0.72
  -5   6   3    4.34    1.47
  -5   6   2  119.40    6.56
   5  -6  -2  112.53    8.86
  -5   6   2  117.84    6.56
   5  -6  -2  119.89    6.47
  -5   6   2  114.99    8.46
   5  -6  -1    0.43    0.44
  -5   6   1    0.46    0.48
   5  -6  -1    0.32    1.06
  -5   6   1    1.23    0.61
  -5   6   1    1.11    1.07
  -5   6   0  148.35    8.11
   5  -6   0  152.64    8.11
   5  -6   0  161.19   10.69
  -5   6   0  155.82    8.26
  -5   6  -1   63.42    3.86
  -5   6  -1   65.62    3.81
  -5   6  -1   69.58    6.37
   5  -6   1   71.81    3.95
   5  -6   1   64.08    5.73
  -5   6  -2   16.85    1.40
   5  -6   2   19.33    2.75
  -5   6  -2   18.98    1.50
  -5   6  -2   19.12    1.64
   5  -6   2   19.58    1.53
  -5   6  -2   23.12    3.44
  -5   6  -2   18.68    2.78
  -5   6  -3   54.06    3.35
   5  -6   3   55.11    3.47
  -5   6  -3   58.78    3.52
   5  -6   3   60.71    3.41
  -5   6  -3   59.05    5.11
  -5   6  -3   50.01    5.38
   5  -6   3   52.07    3.30
   5  -6   4   28.35    1.99
  -5   6  -4   36.49    4.17
  -5   6  -4   27.99    2.01
   5  -6   4   26.82    2.05
  -5   6  -4   31.01    2.13
  -5   6  -4   27.50    3.26
   5  -6   4   25.94    1.91
   5  -6   5  137.20    7.37
  -5   6  -5  140.73    7.45
   5  -6   5  141.76    7.49
  -5   6  -5  140.69    7.46
  -5   6  -5  128.92    9.86
  -5   6  -5  128.71    9.14
   5  -6   5  136.14    7.32
   5  -6   6   -0.10    0.39
  -5   6  -6    0.52    0.55
  -5   6  -6    0.55    0.45
   5  -6   6    0.96    0.47
   5  -6   6    0.52    0.42
  -5   6  -6    0.96    0.82
  -5   6  -7   54.69    3.31
   5  -6   7   50.74    3.18
  -5   6  -7   51.92    3.18
   5  -6   7   52.60    3.16
  -5   6  -7   49.94    4.52
  -5   6  -8   29.25    2.02
  -5   6  -8   23.71    1.79
   5  -6   8   26.86    1.86
  -5   6  -9    1.41    0.66
   5  -6   9    1.58    0.46
   5  -6  10  142.39    7.49
  -5   6 -11    8.36    0.90
  -5   6 -11    6.46    0.78
   5  -6  11    6.97    0.77
  -5   6 -12  124.39    6.22
  -5   6 -12  115.23    6.15
   5  -6  12  112.16    6.11
  -5   6 -13    5.99    0.68
  -5   6 -14   18.90    1.35
  -5   6 -14   22.51    1.50
  -5   6 -15   28.62    1.82
  -5   6 -15   36.36    1.97
  -5   6 -16    0.10    0.23
   5  -5 -18   15.81    1.04
   5  -5 -17   16.35    1.17
  -5   5  17   19.53    1.15
  -5   5  16    3.69    0.55
  -5   5  15  133.67    7.32
  -5   5  15  158.78    7.53
  -5   5  14    0.43    0.37
  -5   5  14   -0.31    0.43
  -5   5  13    4.48    0.69
   5  -5 -13    3.79    0.59
  -5   5  13    3.99    0.73
  -5   5  12   68.75    4.02
  -5   5  12   67.58    4.06
  -5   5  11    6.43    0.93
  -5   5  11    4.89    0.89
   5  -5 -10   82.59    7.32
   5  -5 -10   68.96    7.22
  -5   5   9    4.05    0.85
   5  -5  -9    4.34    0.64
   5  -5  -9    2.09    1.41
   5  -5  -9    2.34    1.46
  -5   5   8  359.19   17.09
   5  -5  -8  328.38   16.84
   5  -5  -8  331.15   20.01
  -5   5   8  334.09   16.76
  -5   5   7   18.30    1.62
   5  -5  -7   17.36    1.49
   5  -5  -7   18.64    3.13
  -5   5   7   17.11    1.43
   5  -5  -7   16.00    1.48
  -5   5   7   15.32    2.35
  -5   5   6   63.42    3.90
   5  -5  -6   65.60    3.93
  -5   5   6   65.98    5.47
   5  -5  -6   69.72    3.98
   5  -5  -5  195.43   10.13
   5  -5  -5  192.55   12.82
  -5   5   5  191.31   10.08
  -5   5   5  193.92   12.00
   5  -5  -5  189.27   10.02
  -5   5   4    1.75    1.19
  -5   5   4    2.82    0.73
   5  -5  -4    1.22    0.53
   5  -5  -4    1.15    0.53
  -5   5   4    0.54    0.54
  -5   5   3  161.68    8.83
   5  -5  -3  172.34    8.80
   5  -5  -3  153.17   11.05
  -5   5   3  163.56    8.79
   5  -5  -3  167.36    8.70
  -5   5   3  152.59   10.55
  -5   5   2    0.25    0.87
  -5   5   2    0.35    0.47
   5  -5  -2    0.31    1.11
  -5   5   2    0.41    0.53
   5  -5  -2    0.12    0.40
  -5   5   1  286.06   14.32
  -5   5   1  252.40   14.22
  -5   5   1  298.70   17.43
   5  -5  -1  289.49   16.85
   5  -5  -1  289.34   14.20
  -5   5   1  286.86   16.38
  -5   5   0    5.18    0.81
  -5   5   0    2.93    0.67
   5  -5   0    3.38    0.67
   5  -5   0    5.80    1.68
  -5   5  -1  108.83    6.48
  -5   5  -1  118.26    6.38
   5  -5   1  126.89    6.52
   5  -5   1  123.60    6.50
  -5   5  -2  355.75   20.29
  -5   5  -2  402.49   20.30
   5  -5   2  441.45   22.86
  -5   5  -2  433.16   20.55
   5  -5   2  427.90   20.40
  -5   5  -2  407.84   22.55
   5  -5   2  417.50   20.38
  -5   5  -3   22.09    1.64
   5  -5   3   19.81    1.67
  -5   5  -3   23.44    1.79
   5  -5   3   21.17    1.65
  -5   5  -3   20.74    2.85
   5  -5   3   22.38    1.67
  -5   5  -4  950.52   47.29
   5  -5   4  968.81   47.36
  -5   5  -4  918.40   47.36
   5  -5   4  989.29   47.33
  -5   5  -4  927.04   49.39
   5  -5   4  979.32   47.29
  -5   5  -5    0.25    0.95
   5  -5   5   -0.17    0.47
  -5   5  -5    1.34    0.60
   5  -5   5    0.57    0.51
  -5   5  -5    0.32    1.33
   5  -5   5   -0.12    0.48
  -5   5  -5    0.46    0.54
  -5   5  -6  353.90   16.95
   5  -5   6  335.87   16.89
  -5   5  -6  318.83   16.87
  -5   5  -6  334.65   19.66
   5  -5   6  333.66   16.86
  -5   5  -6  326.15   18.78
   5  -5   6  327.02   16.81
  -5   5  -7   92.17    4.97
   5  -5   7   86.06    4.86
  -5   5  -7   88.90    4.89
   5  -5   7   81.77    4.83
  -5   5  -7   82.73    6.48
   5  -5   7   84.22    4.81
   5  -5   8    2.06    0.52
  -5   5  -8    1.50    0.66
   5  -5   8    1.79    0.52
   5  -5   8    1.03    0.47
  -5   5  -8    1.19    0.44
  -5   5  -8    2.85    1.02
   5  -5   9    1.10    0.48
  -5   5  -9    1.78    0.44
  -5   5  -9    1.60    0.68
   5  -5   9    1.33    0.46
  -5   5  -9    1.02    0.50
  -5   5 -10   36.11    2.45
  -5   5 -10   33.27    2.27
   5  -5  10   35.43    2.32
   5  -5  10   33.43    2.23
   5  -5  11  414.51   20.04
   5  -5  11  385.78   19.92
  -5   5 -12   16.35    1.33
   5  -5  12   16.72    1.34
   5  -5  12   14.48    1.22
  -5   5 -13   44.57    2.70
   5  -5  13   47.20    2.79
  -5   5 -14   67.19    3.66
   5  -5  14   58.29    3.49
  -5   5 -15    0.57    0.39
  -5   5 -15   -0.13    0.40
   5  -5  15   -0.25    0.33
  -5   5 -16   29.90    1.93
  -5   5 -16   33.36    1.95
  -5   5 -17    1.04    0.33
  -5   5 -17    1.43    0.27
   5  -4 -18   14.60    1.02
   5  -4 -18   17.78    1.17
  -5   4  18   18.09    1.08
   5  -4 -17    0.78    0.31
   5  -4 -17    1.07    0.44
  -5   4  17    1.11    0.35
   5  -4 -16   90.93    5.55
  -5   4  16  110.57    5.45
  -5   4  15    0.73    0.47
  -5   4  14    5.40    0.69
  -5   4  14    6.58    0.84
  -5   4  13    5.89    0.78
   5  -4 -13    4.64    0.71
  -5   4  13    6.05    0.86
  -5   4  12    7.33    0.91
  -5   4  12    7.07    0.95
  -5   4  11   86.88    4.86
   5  -4 -11   71.52    6.60
  -5   4  10   15.99    1.50
   5  -4 -10   14.08    2.62
  -5   4   9  374.43   18.89
   5  -4  -9  355.67   21.47
  -5   4   8   11.05    1.25
   5  -4  -8    7.02    1.99
   5  -4  -8   11.24    2.02
   5  -4  -8   10.70    1.06
  -5   4   7  125.91    6.83
   5  -4  -7  128.04    9.30
  -5   4   7  117.38    6.59
   5  -4  -7  130.28    6.66
   5  -4  -7  116.48    8.56
   5  -4  -7  119.31    6.62
  -5   4   7  113.30    8.10
  -5   4   6   38.56    2.67
   5  -4  -6   37.91    2.51
   5  -4  -6   45.78    4.61
  -5   4   6   37.29    3.71
  -5   4   6   37.65    2.49
   5  -4  -6   37.49    2.48
  -5   4   5    5.97    1.51
  -5   4   5    6.06    0.90
   5  -4  -5    6.07    0.82
  -5   4   5    5.63    0.82
   5  -4  -5    5.32    0.77
   5  -4  -4  237.43   11.51
  -5   4   4  212.45   11.46
   5  -4  -4  241.84   14.08
   5  -4  -4  215.45   11.40
  -5   4   4  217.37   13.15
  -5   4   3    0.44    0.78
  -5   4   3    1.01    0.58
   5  -4  -3    0.67    0.44
   5  -4  -3    0.29    0.73
  -5   4   3    0.43    0.44
   5  -4  -3    0.49    0.43
  -5   4   2  103.51    5.72
  -5   4   2   98.61    5.72
   5  -4  -2  104.86    5.70
   5  -4  -2  119.28    7.97
   5  -4  -2  102.39    5.63
  -5   4   2  107.25    7.30
  -5   4   1    8.21    1.68
  -5   4   1    6.22    0.85
   5  -4  -1    6.02    0.76
   5  -4  -1    5.35    1.57
  -5   4   0   52.72    3.28
  -5   4   0   66.94    5.62
   5  -4   0   60.53    5.06
   5  -4   0   52.99    3.22
   5  -4   0   54.39    3.24
  -5   4  -1  131.40    7.53
   5  -4   1  156.49    9.63
  -5   4  -1  146.19    9.92
   5  -4   1  148.57    7.53
   5  -4   1  143.20    7.52
   5  -4   2    2.91    0.60
  -5   4  -2    2.27    0.52
   5  -4   2    2.08    0.56
  -5   4  -2    0.86    1.07
  -5   4  -2    1.87    0.60
   5  -4   2    2.89    0.57
  -5   4  -3  141.46    8.15
   5  -4   3  155.08    8.23
  -5   4  -3  158.05    8.32
  -5   4  -3  169.66   10.69
  -5   4  -3  167.79   10.06
   5  -4   3  168.23    8.29
   5  -4   3  160.21    8.24
   5  -4   4    3.14    0.61
  -5   4  -4    2.20    0.62
  -5   4  -4    3.29    1.22
  -5   4  -4    1.71    1.29
  -5   4  -4    2.35    0.58
   5  -4   4    2.41    0.55
   5  -4   4    1.69    0.52
   5  -4   5  114.38    6.15
  -5   4  -5  115.23    6.15
  -5   4  -5  106.07    6.18
   5  -4   5  113.27    6.16
  -5   4  -5  110.77    7.74
   5  -4   5  119.32    6.18
   5  -4   6  143.13    7.85
  -5   4  -6  159.06    7.94
  -5   4  -6  146.60    9.53
  -5   4  -6  137.45    7.88
   5  -4   6  154.12    7.91
   5  -4   6  152.49    7.88
  -5   4  -7    0.22    0.74
   5  -4   7    1.25    0.49
  -5   4  -7    0.73    0.48
  -5   4  -7    0.93    0.55
   5  -4   7    0.95    0.44
   5  -4   7    1.71    0.58
  -5   4  -8   28.72    2.09
  -5   4  -8   26.70    2.00
   5  -4   8   32.06    3.36
   5  -4   8   30.50    1.99
   5  -4   8   28.64    2.04
  -5   4  -8   27.30    3.11
   5  -4   8   27.80    1.99
   5  -4   9    5.46    0.79
  -5   4  -9    5.68    0.90
  -5   4  -9    5.73    0.77
   5  -4   9    7.40    0.91
  -5   4  -9    5.64    0.78
   5  -4  10   48.06    3.03
  -5   4 -10   48.13    2.97
   5  -4  10   46.86    2.95
  -5   4 -11   38.15    2.48
   5  -4  11   36.90    2.50
   5  -4  11   37.19    2.45
  -5   4 -12   14.25    1.41
  -5   4 -12   15.51    1.33
   5  -4  12   13.57    1.29
   5  -4  12   12.32    1.19
  -5   4 -13  307.65   14.89
  -5   4 -13  289.99   14.75
   5  -4  13  282.53   14.74
   5  -4  13  281.57   14.66
  -5   4 -14   15.66    1.33
   5  -4  14   14.71    1.30
   5  -4  14   12.82    1.18
  -5   4 -15  105.73    5.59
  -5   4 -15  102.60    5.58
   5  -4  15  107.12    5.57
   5  -4  15   94.61    5.42
  -5   4 -16    1.41    0.48
   5  -4  16    0.53    0.39
  -5   4 -17   30.40    1.86
   5  -4  17   31.27    1.88
  -5   4 -18   17.21    1.19
  -5   4 -19    0.20    0.22
   5  -3 -18    3.23    0.47
  -5   3  18    2.56    0.37
   5  -3 -18    2.69    0.39
   5  -3 -17   32.22    2.08
   5  -3 -17   35.07    2.21
  -5   3  17   34.89    2.06
   5  -3 -16    0.36    0.54
  -5   3  16    0.04    0.39
  -5   3  15  117.54    6.30
  -5   3  14    2.96    0.65
  -5   3  13   24.25    1.73
   5  -3 -13   21.12    1.69
  -5   3  13   26.87    1.88
  -5   3  12    5.25    0.81
   5  -3 -12    4.45    1.82
  -5   3  12    5.29    0.84
  -5   3  11    7.02    0.96
   5  -3 -11    6.10    1.83
   5  -3 -11    6.61    1.76
   5  -3 -10  189.33   12.98
   5  -3 -10  172.10   13.42
  -5   3   9    1.28    0.64
   5  -3  -9    0.61    1.00
  -5   3   8   43.35    2.80
   5  -3  -8   44.22    4.46
   5  -3  -8   37.27    3.75
   5  -3  -8   36.64    2.45
  -5   3   7   93.59    5.26
   5  -3  -7   91.50    5.00
   5  -3  -7   89.87    7.16
   5  -3  -7   87.82    6.62
  -5   3   7   79.57    6.16
  -5   3   6   25.81    1.94
   5  -3  -6   22.27    1.69
   5  -3  -6   29.67    3.35
  -5   3   6   21.59    1.68
   5  -3  -6   23.19    2.91
   5  -3  -6   24.58    1.74
  -5   3   6   22.50    2.63
  -5   3   5  155.21    8.09
   5  -3  -5  156.84    7.93
   5  -3  -5  143.43    9.94
   5  -3  -5  140.46    7.86
  -5   3   5  152.66    9.40
  -5   3   4    2.98    1.10
  -5   3   4    2.74    0.67
   5  -3  -4    3.30    0.61
   5  -3  -4    3.08    0.58
   5  -3  -3  201.86   10.11
   5  -3  -3  215.51   12.33
   5  -3  -3  186.03   10.05
   5  -3  -2   10.15    1.79
   5  -3  -2    9.06    0.93
   5  -3  -2    9.98    0.95
   5  -3  -1    8.89    1.68
   5  -3  -1    8.26    0.84
   5  -3  -1    7.09    0.82
   5  -3   0  208.98   10.60
   5  -3   0  235.40   12.71
   5  -3   0  203.79   10.56
   5  -3   0  200.63   10.55
   5  -3   1    0.24    0.35
   5  -3   1    0.49    0.35
   5  -3   1    1.12    0.87
   5  -3   1    0.62    0.38
  -5   3  -1    1.25    1.13
  -5   3  -2   85.43    6.41
   5  -3   2   81.70    4.53
   5  -3   2   84.73    6.19
   5  -3   2   78.77    4.54
   5  -3   2   85.12    4.57
   5  -3   3  132.80    6.98
  -5   3  -3  141.49    9.07
   5  -3   3  129.11    6.99
   5  -3   3  133.28    7.00
   5  -3   4   21.56    1.61
   5  -3   4   25.38    1.71
  -5   3  -4   24.87    3.03
   5  -3   4   22.93    1.65
   5  -3   5  166.28    8.64
   5  -3   5  171.73    8.71
  -5   3  -5  152.50    9.93
  -5   3  -5  171.35   10.75
   5  -3   5  164.51    8.68
   5  -3   6    4.92    0.71
  -5   3  -6    6.68    1.44
   5  -3   6    4.54    0.64
   5  -3   6    4.22    0.71
  -5   3  -6    5.93    1.59
   5  -3   7  390.84   18.54
   5  -3   7  362.18   20.30
  -5   3  -7  367.75   20.79
   5  -3   7  376.04   18.61
  -5   3  -7  373.77   20.18
  -5   3  -7  331.16   18.52
   5  -3   7  382.51   18.58
  -5   3  -8    1.81    0.93
   5  -3   8    1.99    0.53
  -5   3  -8    1.73    0.49
   5  -3   8    1.97    0.46
  -5   3  -8    0.73    0.46
   5  -3   8    3.50    1.22
   5  -3   8    2.45    0.58
  -5   3  -9   39.09    2.55
   5  -3   9   42.31    2.67
  -5   3  -9   35.33    3.58
   5  -3   9   42.18    2.62
  -5   3 -10  121.82    6.64
   5  -3  10  121.66    6.72
   5  -3  10  126.45    6.69
   5  -3  11    0.06    0.44
  -5   3 -11    0.07    0.59
   5  -3  11    0.25    0.88
  -5   3 -11    0.49    0.48
   5  -3  11    0.07    0.45
  -5   3 -12  114.72    5.99
   5  -3  12   90.40    7.29
  -5   3 -12  107.76    6.05
   5  -3  12  113.06    6.04
   5  -3  12  101.76    5.90
   5  -3  13    5.35    0.82
  -5   3 -13    6.05    0.96
   5  -3  13    5.55    0.86
  -5   3 -13    6.64    0.92
  -5   3 -14   99.35    5.63
  -5   3 -14  102.42    5.59
   5  -3  14  102.67    5.61
   5  -3  14   94.29    5.48
  -5   3 -15   13.53    1.32
  -5   3 -15   14.06    1.33
   5  -3  15   13.11    1.28
   5  -3  15   14.02    1.25
  -5   3 -16   25.64    1.92
   5  -3  16   27.62    1.91
   5  -3  16   25.78    1.83
  -5   3 -17   43.80    2.71
  -5   3 -17   51.36    2.94
   5  -3  17   49.21    2.84
   5  -3  17   45.41    2.74
   5  -3  18    2.62    0.41
   5  -3  18    3.07    0.50
  -5   3 -19   85.12    4.12
   5  -3  19   70.30    3.97
  -5   3 -20    2.69    0.39
   5  -2 -18   28.07    1.76
   5  -2 -18   29.18    1.80
   5  -2 -17    0.22    0.37
   5  -2 -17    1.15    0.48
  -5   2  17    0.29    0.32
   5  -2 -16   95.79    5.18
  -5   2  16   87.13    4.88
   5  -2 -15   13.88    1.43
  -5   2  15   12.55    1.15
   5  -2 -14   13.80    1.36
  -5   2  14   15.08    1.30
   5  -2 -13  240.71   12.45
  -5   2  13  239.99   12.38
  -5   2  12    0.06    0.40
   5  -2 -12   -0.25    0.47
  -5   2  12   -0.06    0.50
   5  -2 -12   -0.13    0.55
  -5   2  11  159.19    8.49
   5  -2 -11  139.95   11.19
   5  -2 -11  162.72    8.51
  -5   2  10    0.70    0.51
   5  -2 -10    0.79    0.72
   5  -2 -10    0.38    1.11
   5  -2 -10    0.67    0.55
  -5   2   9   27.52    2.11
   5  -2  -9   30.19    3.42
   5  -2  -9   24.55    3.77
   5  -2  -8   64.91    3.68
  -5   2   8   69.12    4.02
   5  -2  -8   58.46    5.41
   5  -2  -8   65.10    6.19
   5  -2  -8   62.38    4.94
  -5   2   7   -0.17    0.66
   5  -2  -7    0.05    0.33
  -5   2   7    0.62    0.53
   5  -2  -7    0.60    0.65
   5  -2  -7   -0.26    0.75
   5  -2  -7   -0.11    0.40
  -5   2   6  404.94   19.91
   5  -2  -6  402.71   21.91
   5  -2  -6  381.12   19.70
   5  -2  -6  373.72   21.34
   5  -2  -6  400.79   19.68
   5  -2  -5    6.02    0.72
   5  -2  -5    7.87    1.64
   5  -2  -5    3.86    1.27
   5  -2  -4  614.32   30.16
   5  -2  -4  613.59   32.14
   5  -2  -4  587.49   31.83
   5  -2  -3  168.96    8.73
   5  -2  -2   37.34    2.37
   5  -2  -2   46.12    3.85
   5  -2  -1  264.77   13.71
   5  -2  -1  312.62   15.72
   5  -2   0    3.40    1.09
   5  -2   1   93.40    5.22
   5  -2   1  103.52    6.81
   5  -2   2  132.26    7.12
  -5   2  -2  141.11    8.85
   5  -2   2  156.34    8.93
  -5   2  -3  303.70   16.36
   5  -2   3  285.04   14.48
   5  -2   4  263.80   13.52
  -5   2  -4  292.72   15.47
  -5   2  -5    2.38    1.15
   5  -2   5    2.56    0.49
  -5   2  -6  431.53   23.64
   5  -2   6  439.86   21.70
   5  -2   6  418.82   23.28
   5  -2   6  440.16   21.79
   5  -2   6  434.06   21.75
   5  -2   7    0.16    0.38
   5  -2   7    0.05    0.35
   5  -2   7   -0.20    0.58
   5  -2   7    0.33    0.41
  -5   2  -7    0.23    0.97
   5  -2   8   78.86    5.56
   5  -2   8   71.11    4.22
  -5   2  -8   70.78    5.24
   5  -2   8   76.88    4.13
   5  -2   8   73.58    4.21
   5  -2   9  128.72    6.62
   5  -2   9  124.92    7.90
  -5   2  -9  105.99    7.55
   5  -2   9  119.06    6.52
   5  -2  10   31.93    2.20
   5  -2  10   30.15    2.12
   5  -2  11   85.23    6.63
  -5   2 -11   90.86    5.16
   5  -2  11   91.89    5.17
   5  -2  11   89.72    5.07
   5  -2  12    3.44    0.68
  -5   2 -12    3.48    0.76
   5  -2  12    4.29    0.77
   5  -2  12    2.49    1.10
   5  -2  13  104.12    8.03
  -5   2 -13  128.14    6.69
  -5   2 -13  115.91    6.55
   5  -2  13  126.77    6.67
   5  -2  13  114.52    6.52
  -5   2 -14   29.71    2.18
  -5   2 -14   31.51    2.20
   5  -2  14   29.88    2.19
   5  -2  14   26.53    2.06
   5  -2  15    0.98    0.54
  -5   2 -15    1.52    0.64
   5  -2  15    1.15    0.57
  -5   2 -15    0.83    0.60
  -5   2 -16   28.65    2.11
  -5   2 -16   31.43    2.24
   5  -2  16   31.30    2.22
   5  -2  16   33.06    2.20
  -5   2 -17   10.41    1.11
  -5   2 -17    8.18    0.86
   5  -2  17    9.10    1.04
   5  -2  17    9.62    0.99
  -5   2 -18  241.54   11.61
   5  -2  18  227.99   11.54
   5  -2  18  211.04   11.42
   5  -2  19    1.55    0.42
  -5   2 -19    2.56    0.56
   5  -2  19    3.09    0.51
   5  -2  20   47.73    2.64
  -5   2 -21   11.83    0.83
   5  -1 -19   20.68    1.23
   5  -1 -19   17.95    1.16
   5  -1 -18    1.45    0.39
   5  -1 -18    1.38    0.42
   5  -1 -18    1.02    0.39
   5  -1 -17   33.72    2.17
   5  -1 -17   33.12    2.21
   5  -1 -16   23.94    1.76
   5  -1 -16   23.84    1.83
  -5   1  16   20.41    1.52
   5  -1 -15    8.83    1.13
   5  -1 -15    8.82    1.04
  -5   1  15    6.69    0.83
   5  -1 -14  232.67   11.84
   5  -1 -14  233.06   11.62
  -5   1  14  208.56   11.39
   5  -1 -13    0.07    0.59
  -5   1  13    0.53    0.46
   5  -1 -12   75.89    7.39
   5  -1 -12   83.00    4.94
   5  -1 -12   95.17    5.12
  -5   1  12   88.55    4.97
  -5   1  11   58.53    3.66
   5  -1 -11   59.93    6.11
   5  -1 -11   62.64    3.77
   5  -1 -11   65.29    3.82
  -5   1  10   54.33    3.44
   5  -1 -10   53.54    5.65
   5  -1 -10   58.28    3.51
   5  -1  -9  194.12   13.36
  -5   1   9  200.65   10.67
   5  -1  -9  207.99   10.62
  -5   1   8   34.14    2.35
   5  -1  -8   29.57    3.30
   5  -1  -8   33.27    4.08
   5  -1  -8   32.82    2.25
  -5   1   7  692.01   33.19
   5  -1  -7  666.38   32.90
   5  -1  -7  666.24   34.90
   5  -1  -7  647.38   36.00
   5  -1  -7  635.89   33.00
   5  -1  -7  652.08   34.37
   5  -1  -7  692.63   33.07
   5  -1  -6    9.63    0.88
   5  -1  -6   11.43    1.68
   5  -1  -6    9.06    0.94
   5  -1  -6   10.31    1.75
   5  -1  -5   55.08    4.58
   5  -1  -5   56.17    3.15
   5  -1  -5   53.16    3.19
   5  -1  -5   57.59    4.48
   5  -1  -4  182.88    9.40
   5  -1  -4  194.94   11.13
   5  -1  -4  178.82   10.81
   5  -1  -3    6.95    0.70
   5  -1  -3    4.99    1.29
   5  -1  -3    4.32    1.18
   5  -1  -2  927.22   45.39
   5  -1  -2  916.24   46.88
   5  -1  -1    1.34    0.39
   5  -1  -1    1.18    0.85
   5  -1  -1    2.35    0.96
   5  -1   0   13.19    1.88
   5  -1   1    0.23    0.29
   5  -1   1    0.43    0.35
  -5   1  -1   -0.17    0.72
   5  -1   2   26.15    1.70
  -5   1  -2   28.74    2.81
   5  -1   3  292.00   14.88
  -5   1  -3  315.99   16.47
   5  -1   3  305.83   16.31
   5  -1   4    9.70    0.88
   5  -1   4   12.93    1.80
  -5   1  -4   11.42    1.78
   5  -1   5  245.63   12.37
   5  -1   5  240.96   13.82
  -5   1  -5  248.76   13.97
  -5   1  -6    0.98    0.86
   5  -1   6    0.65    0.32
   5  -1   6    0.70    0.67
   5  -1   7  132.55    6.95
   5  -1   7  135.00    7.07
  -5   1  -7  135.38    8.64
   5  -1   7  131.97    8.36
   5  -1   8   62.33    4.44
   5  -1   8   53.75    3.23
   5  -1   8   54.94    3.10
   5  -1   8   51.81    3.19
   5  -1   9    5.84    1.28
   5  -1   9    5.67    0.77
   5  -1   9    6.92    0.79
   5  -1  10  139.47    7.42
  -5   1 -10  119.60    8.19
   5  -1  10  144.67    7.38
   5  -1  11    0.61    0.47
   5  -1  11    0.93    0.47
   5  -1  11    1.69    0.94
   5  -1  12  273.85   16.76
   5  -1  12  309.02   15.05
   5  -1  12  283.87   14.92
   5  -1  13    0.67    0.53
   5  -1  13    0.74    0.51
  -5   1 -13    0.21    0.59
   5  -1  13    0.51    0.79
   5  -1  14   26.62    3.32
  -5   1 -14   28.66    2.17
   5  -1  14   32.51    2.29
   5  -1  14   30.40    2.18
  -5   1 -15  120.16    6.58
   5  -1  15  101.06    8.08
   5  -1  15  128.71    6.76
  -5   1 -15  120.22    6.66
   5  -1  15  118.91    6.61
  -5   1 -16    6.92    0.94
  -5   1 -16    9.11    1.15
   5  -1  16    9.32    1.12
   5  -1  16    9.48    1.06
  -5   1 -17  177.72    8.81
   5  -1  17  167.25    8.78
   5  -1  17  150.89    8.63
   5  -1  18    3.68    0.67
   5  -1  18    2.72    0.66
  -5   1 -18    2.96    0.73
  -5   1 -19   70.71    4.03
   5  -1  19   71.72    3.99
   5  -1  19   67.66    3.90
  -5   1 -20   14.46    1.18
   5  -1  20   13.17    1.07
   5  -1  20   13.41    1.03
   5  -1  21    0.44    0.22
   5  -1  21    1.28    0.29
   5   0 -19    0.02    0.20
   5   0 -18   27.47    1.64
   5   0 -18   26.48    1.59
   5   0 -17   22.75    1.79
   5   0 -17   26.36    1.84
   5   0 -16    3.24    0.71
   5   0 -16    3.90    0.75
   5   0 -16    3.76    0.77
   5   0 -15  158.83    8.61
   5   0 -15  159.62    8.50
   5   0 -14    4.06    0.91
  -5   0  14    3.68    0.65
   5   0 -14    5.11    0.96
   5   0 -13  172.45    9.05
   5   0 -13  166.47    8.84
  -5   0  13  159.49    8.63
   5   0 -12    2.92    1.32
   5   0 -12    3.33    0.64
  -5   0  12    3.45    0.65
   5   0 -12    3.93    0.84
   5   0 -11    1.09    1.19
   5   0 -11    0.50    0.46
  -5   0  11    0.88    0.45
   5   0 -11    0.07    0.59
   5   0 -10   48.36    5.21
   5   0 -10   51.38    3.22
   5   0 -10   51.56    3.25
  -5   0   9   11.59    1.18
   5   0  -9   12.92    2.54
   5   0  -9   12.35    1.24
   5   0  -9   12.86    1.27
  -5   0   8  557.62   27.66
   5   0  -8  568.38   30.50
   5   0  -8  549.86   27.64
   5   0  -7    0.37    0.29
   5   0  -7    0.60    1.20
   5   0  -7   -0.31    0.59
   5   0  -7   -0.50    0.53
   5   0  -6   93.66    7.37
   5   0  -6   97.25    5.28
   5   0  -6   98.36    6.34
   5   0  -6   96.77    5.15
   5   0  -6   97.66    5.31
   5   0  -5   62.47    4.70
   5   0  -5   60.72    3.38
   5   0  -5   58.92    4.48
   5   0  -4    0.86    0.36
   5   0  -4    2.18    0.77
   5   0  -4    0.88    0.75
   5   0  -3  188.18   11.45
   5   0  -3  203.59   10.30
   5   0  -3  221.30   11.85
   5   0  -2   13.35    1.78
   5   0  -2   13.86    1.77
   5   0  -2   11.12    0.93
   5   0  -1  430.47   21.62
   5   0  -1  465.55   23.02
   5   0   0   27.33    1.91
  -5   0  -1   24.61    2.36
   5   0   1   21.56    1.47
   5   0   1   23.27    1.81
   5   0   1   23.78    2.42
   5   0   2  148.71    8.47
   5   0   2  130.63    7.12
  -5   0  -2  150.85    8.37
   5   0   2  149.33    7.85
   5   0   3    1.22    0.74
  -5   0  -3    2.20    0.82
   5   0   3    1.83    0.39
   5   0   4  393.61   19.85
  -5   0  -4  414.17   21.20
   5   0   4  418.75   21.28
   5   0   5   13.14    1.03
   5   0   5   12.94    1.74
  -5   0  -6  411.30   21.78
   5   0   6  445.89   21.78
   5   0   6  400.96   20.28
   5   0   7  280.56   14.34
   5   0   7  251.04   12.87
   5   0   8   32.97    2.03
   5   0   8   35.54    3.06
   5   0   9  176.36    8.97
   5   0   9  179.39   10.27
   5   0   9  173.97    9.11
   5   0  10   34.77    2.28
   5   0  11  182.56   10.77
   5   0  11  164.22    8.80
   5   0  12   71.02    5.41
   5   0  12   59.58    3.68
   5   0  13   28.08    3.30
   5   0  13   28.17    2.07
   5   0  14  104.27    7.88
  -5   0 -14  112.65    6.23
   5   0  14  116.04    6.29
  -5   0 -15    9.33    1.04
   5   0  15    6.68    1.85
   5   0  15   10.20    1.14
  -5   0 -16  126.90    6.86
   5   0  16  136.92    7.07
   5   0  17    6.10    0.91
  -5   0 -17    6.02    0.73
  -5   0 -17    5.73    0.97
  -5   0 -18   67.36    4.12
   5   0  18   68.00    4.13
   5   0  18   71.17    4.07
   5   0  19   14.74    1.33
   5   0  19   14.22    1.25
   5   0  20    0.52    0.35
   5   0  20    0.67    0.41
   5   0  21   50.91    2.85
   5   0  21   49.16    2.80
   5   0  22    0.92    0.25
   5   1 -19   26.20    1.57
   5   1 -18   30.61    1.80
   5   1 -18   29.59    1.72
   5   1 -17    0.50    0.41
   5   1 -17    0.18    0.42
   5   1 -17    0.35    0.43
   5   1 -16   78.98    4.42
   5   1 -16   66.81    4.33
   5   1 -16   80.71    4.43
   5   1 -16   78.63    4.40
   5   1 -15    1.92    0.70
   5   1 -15    2.45    0.72
   5   1 -15    2.55    0.90
   5   1 -14  351.57   18.45
   5   1 -14  377.86   18.59
   5   1 -13    0.08    0.60
   5   1 -13   -0.29    0.82
   5   1 -12    2.62    0.74
   5   1 -12    1.37    1.23
   5   1 -12    1.21    0.47
   5   1 -12    1.17    0.74
   5   1 -11   66.97    6.34
   5   1 -11   69.32    4.15
   5   1 -11   73.30    4.39
   5   1 -11   74.89    4.33
   5   1 -10   -0.12    0.44
   5   1 -10    0.33    0.89
   5   1 -10    0.07    0.56
   5   1  -9   19.85    2.95
   5   1  -9   20.04    1.63
   5   1  -9   22.98    1.74
   5   1  -8   11.67    2.28
   5   1  -8   11.74    1.10
   5   1  -8    9.43    1.10
   5   1  -7  266.39   14.78
   5   1  -7  237.64   12.38
   5   1  -7  240.51   12.41
   5   1  -7  242.43   13.28
   5   1  -6   36.15    3.71
   5   1  -6   34.98    2.01
   5   1  -6   28.51    2.15
   5   1  -6   34.32    2.93
   5   1  -6   33.15    2.19
   5   1  -5   27.18    1.72
   5   1  -5   26.23    3.08
   5   1  -5   31.68    2.77
   5   1  -4  190.02    9.71
   5   1  -4  198.87   10.97
   5   1  -3    2.49    0.42
   5   1  -3    2.61    0.54
   5   1  -3    2.58    0.84
   5   1  -2  202.14   10.05
   5   1  -2  182.58   10.35
   5   1  -1   72.34    3.92
   5   1  -1   73.31    4.31
   5   1  -1   74.81    5.02
   5   1   0   35.11    2.04
   5   1   0   31.62    2.39
  -5  -1  -1  316.88   16.15
   5   1   1  296.30   15.71
   5   1   2   12.32    1.00
  -5  -1  -2   14.70    1.63
   5   1   2   13.76    1.76
   5   1   3  358.10   18.36
   5   1   3  397.99   19.38
  -5  -1  -3  390.76   19.44
   5   1   3  369.75   19.55
   5   1   4   74.53    4.98
   5   1   4   70.37    3.91
  -5  -1  -4   81.67    5.01
  -5  -1  -5  165.51    9.28
   5   1   5  154.73    8.07
   5   1   5  166.36    9.31
   5   1   6  291.09   14.67
   5   1   6  307.28   15.96
   5   1   7    5.56    0.61
   5   1   7    8.53    1.36
   5   1   8  774.99   36.87
   5   1   8  711.96   35.50
   5   1   9    2.12    0.38
   5   1   9    1.73    0.70
   5   1  10   49.44    4.02
   5   1  10   34.73    3.07
   5   1  11   11.56    1.99
   5   1  11   12.47    1.24
   5   1  11   16.50    1.31
   5   1  12   70.67    5.47
   5   1  12   61.93    3.82
   5   1  12   64.37    3.79
   5   1  13  245.54   14.75
   5   1  13  244.58   12.86
   5   1  13  253.41   12.85
   5   1  14    0.07    0.50
   5   1  14    0.27    0.87
  -5  -1 -15  264.24   13.67
   5   1  15  253.60   15.87
   5   1  15  277.42   13.88
   5   1  16    0.59    0.58
  -5  -1 -16   -0.10    0.44
   5   1  16    0.56    0.81
   5   1  17   20.27    1.73
   5   1  18    5.58    0.85
   5   1  19   -0.06    0.48
  -5  -1 -20   49.46    3.02
   5   1  20   47.56    3.02
   5   1  20   51.02    2.99
   5   1  21   -0.04    0.35
   5   1  21    0.25    0.36
  -5  -1 -21   -0.28    0.40
  -5  -1 -22   49.12    2.63
   5   1  22   47.23    2.63
   5   1  22   44.26    2.58
   5   2 -18    1.07    0.34
   5   2 -18    0.63    0.27
   5   2 -18    0.29    0.31
   5   2 -17   39.95    2.42
   5   2 -17   42.93    2.36
   5   2 -16    0.97    0.53
   5   2 -16    2.27    0.56
   5   2 -16    0.94    0.72
   5   2 -15  145.67    8.35
   5   2 -15  167.98    8.42
   5   2 -15  159.28    8.41
   5   2 -14    1.74    0.70
   5   2 -14    0.97    1.06
   5   2 -13   11.92    1.30
   5   2 -13   10.71    1.42
   5   2 -12  106.71    8.57
   5   2 -12  111.52    6.34
   5   2 -12  125.33    6.70
   5   2 -12  126.03    6.65
   5   2 -11   12.48    2.33
   5   2 -11   10.53    1.08
   5   2 -11   10.95    1.27
   5   2 -11   12.52    1.32
   5   2 -10   65.73    5.82
   5   2 -10   65.58    3.86
   5   2 -10   67.97    4.03
   5   2 -10   64.31    3.99
   5   2  -9   41.36    4.31
   5   2  -9   42.72    2.76
   5   2  -9   45.46    2.88
   5   2  -8   22.63    2.89
   5   2  -8   20.07    1.59
   5   2  -8   22.30    1.72
   5   2  -7  228.39   12.99
   5   2  -7  237.95   14.01
   5   2  -7  245.89   12.21
   5   2  -7  230.19   12.24
   5   2  -7  243.43   12.29
   5   2  -6    5.26    0.75
   5   2  -6    3.39    1.14
   5   2  -6    5.58    0.72
   5   2  -6    4.33    1.00
   5   2  -6    5.60    0.78
   5   2  -5  326.62   18.71
   5   2  -5  355.95   18.30
   5   2  -4    7.30    1.46
   5   2  -4    9.67    1.41
   5   2  -3   47.52    3.36
   5   2  -3   52.61    4.02
   5   2  -3   50.91    2.83
   5   2  -3   49.60    3.77
   5   2  -2   43.28    2.48
   5   2  -2   43.29    3.05
   5   2  -2   44.13    3.45
   5   2  -1    2.95    0.44
   5   2  -1    2.54    0.73
   5   2  -1    3.86    0.99
  -5  -2   0  854.29   42.43
   5   2   0  833.93   41.73
   5   2   0  905.88   43.00
   5   2   0  868.00   42.49
   5   2   1    8.33    1.17
  -5  -2  -1    6.98    1.06
   5   2   2   58.82    3.35
   5   2   2   62.29    4.10
  -5  -2  -2   68.11    4.07
   5   2   2   62.39    4.35
   5   2   3    9.67    0.82
   5   2   3   11.92    1.51
   5   2   3   10.41    1.53
  -5  -2  -3   11.61    1.35
   5   2   4  246.75   12.62
   5   2   4  260.71   13.79
  -5  -2  -4  266.58   13.59
   5   2   4  251.32   13.81
   5   2   5  152.80    8.38
   5   2   5  136.67    7.15
   5   2   6   77.57    4.21
   5   2   6   85.48    5.40
   5   2   7  741.13   36.87
   5   2   7  798.85   38.17
   5   2   8    2.67    0.82
   5   2   9  112.48    7.15
   5   2   9  101.89    6.55
   5   2  10   61.44    4.16
   5   2  10   60.88    4.77
   5   2  10   53.25    3.35
   5   2  10   57.79    3.34
   5   2  11    2.89    0.59
   5   2  11    3.29    1.25
   5   2  11    3.74    0.65
   5   2  12   74.93    5.65
   5   2  12   65.61    3.98
   5   2  13   11.91    2.10
   5   2  13   11.43    1.19
   5   2  14   84.30    6.65
   5   2  14   83.97    4.92
   5   2  15    1.61    0.66
   5   2  15    0.28    1.02
   5   2  15    1.56    0.67
   5   2  16    0.82    0.55
   5   2  16    1.16    1.16
   5   2  16    0.16    0.56
   5   2  17  126.61    9.69
   5   2  17  150.46    7.91
   5   2  18    5.96    0.94
   5   2  18    4.78    1.09
   5   2  19   56.19    3.26
  -5  -2 -19   54.73    3.28
   5   2  20   -0.05    0.45
  -5  -2 -20    0.16    0.47
   5   2  20    0.92    0.65
  -5  -2 -21   42.97    2.70
   5   2  21   44.67    2.74
   5   2  21   48.45    2.73
  -5  -2 -22   11.78    0.96
   5   2  22   12.72    1.01
   5   2  22   13.79    1.00
   5   2  23    3.86    0.42
   5   2  23    3.35    0.38
   5   3 -18   19.82    1.31
   5   3 -17    5.31    0.63
   5   3 -17    4.28    0.62
   5   3 -16   34.85    2.42
   5   3 -16   41.16    2.45
   5   3 -16   40.53    2.58
   5   3 -15   30.73    2.26
   5   3 -15   36.78    2.33
   5   3 -15   33.78    2.54
   5   3 -14   22.81    2.03
   5   3 -14   21.73    1.80
   5   3 -14   18.87    1.66
   5   3 -14   21.41    1.71
   5   3 -13   59.79    3.65
   5   3 -13   58.96    3.59
   5   3 -13   50.29    3.50
   5   3 -13   60.51    3.70
   5   3 -12    1.20    0.45
   5   3 -12    1.10    0.63
   5   3 -12    1.87    0.84
   5   3 -12    1.79    0.71
   5   3 -11  232.35   12.22
   5   3 -11  252.43   12.50
   5   3 -11  252.60   12.50
   5   3 -10   11.41    2.14
   5   3 -10   15.02    1.29
   5   3 -10   15.16    1.41
   5   3 -10   14.75    1.46
   5   3  -9   68.60    5.65
   5   3  -9   71.99    4.08
   5   3  -9   68.41    4.19
   5   3  -9   71.12    4.22
   5   3  -8   96.30    7.21
   5   3  -8  107.44    5.79
   5   3  -8  107.23    5.93
   5   3  -7    9.64    1.69
   5   3  -7   10.67    1.02
   5   3  -7    8.76    1.07
   5   3  -6  209.12   12.29
   5   3  -6  216.54   12.73
   5   3  -6  222.03   11.37
   5   3  -6  229.74   11.45
   5   3  -6  223.10   11.49
   5   3  -6  220.52   11.43
   5   3  -5    2.67    0.62
   5   3  -5    2.31    0.94
   5   3  -5    2.61    0.51
   5   3  -5    2.88    0.55
   5   3  -5    2.45    0.89
   5   3  -5    2.71    0.64
   5   3  -4  150.88    8.50
   5   3  -4  132.10    8.09
   5   3  -4  142.28    8.39
   5   3  -3   52.89    3.82
   5   3  -3   55.27    3.89
   5   3  -3   56.23    4.08
   5   3  -2  254.03   14.10
   5   3  -2  277.39   14.28
   5   3  -2  268.96   14.48
   5   3  -1  871.02   42.44
   5   3  -1  787.86   42.10
   5   3  -1  912.29   42.77
   5   3   0   37.87    2.99
   5   3   0   37.14    3.12
   5   3   1  589.43   28.84
  -5  -3  -1  551.98   28.13
   5   3   2   67.81    3.79
  -5  -3  -2   72.15    4.22
   5   3   2   76.69    4.82
   5   3   2   72.05    4.86
   5   3   3   17.17    1.18
   5   3   3   16.36    1.90
   5   3   3   17.72    2.00
   5   3   4   85.46    5.46
   5   3   4   79.10    5.38
   5   3   5   34.25    2.96
   5   3   5   31.63    2.84
   5   3   6  485.40   24.76
   5   3   6  461.96   24.50
   5   3   7    0.31    0.67
   5   3   7    0.71    0.67
   5   3   8  180.73   10.39
   5   3   8  184.42   10.69
   5   3   9  153.34    8.94
   5   3  10    0.99    0.38
   5   3  10   -0.14    0.55
   5   3  11  312.69   15.44
   5   3  11  305.65   17.22
   5   3  11  292.41   15.75
   5   3  12    3.03    0.64
   5   3  12    2.67    0.64
   5   3  13  129.86    7.27
   5   3  13  139.15    9.21
   5   3  13  140.30    7.40
   5   3  14   71.73    4.33
   5   3  14   79.52    6.23
   5   3  14   74.48    4.43
   5   3  15   30.60    3.65
   5   3  15   30.63    2.31
   5   3  16   53.07    5.05
   5   3  16   52.28    3.42
   5   3  17   20.87    2.94
   5   3  17   17.28    1.63
   5   3  17   16.53    1.83
   5   3  18  122.25    6.88
   5   3  18  126.86    7.20
   5   3  19    5.70    1.08
  -5  -3 -20   51.78    3.02
   5   3  20   45.75    3.22
   5   3  20   48.39    3.02
  -5  -3 -21   22.76    1.52
   5   3  21   21.72    1.54
   5   3  22    0.21    0.32
  -5  -3 -22    0.35    0.30
   5   3  22    0.11    0.40
   5   3  23   13.03    0.92
   5   4 -17    3.16    0.44
   5   4 -17    2.40    0.45
   5   4 -16   19.78    1.54
   5   4 -16   18.99    1.49
   5   4 -16   20.53    1.47
   5   4 -16   24.55    1.70
   5   4 -15   -0.30    0.50
   5   4 -15    0.89    0.46
   5   4 -15    0.16    0.44
   5   4 -14   71.30    4.40
   5   4 -14   76.85    4.50
   5   4 -14   82.58    4.45
   5   4 -13    0.22    0.50
   5   4 -13    0.07    0.50
   5   4 -13    0.48    0.51
   5   4 -12  132.32    7.53
   5   4 -12  158.53    7.90
   5   4 -12  138.30    7.75
   5   4 -12  153.75    7.83
   5   4 -11    4.11    0.79
   5   4 -11    5.42    0.91
   5   4 -11    4.37    0.82
   5   4 -11    3.94    0.67
   5   4 -10   40.48    2.64
   5   4 -10   42.24    2.81
   5   4 -10   39.28    2.74
   5   4 -10   44.88    2.83
   5   4  -9   80.02    6.24
   5   4  -9   91.28    4.96
   5   4  -9   84.62    5.02
   5   4  -9   91.22    5.07
   5   4  -8   -0.06    0.42
   5   4  -8    0.99    0.71
   5   4  -8   -0.07    0.46
   5   4  -8    0.50    0.43
   5   4  -7  172.46    9.11
   5   4  -7  159.99   10.36
   5   4  -7  189.07    9.26
   5   4  -7  177.17    9.26
   5   4  -6    3.48    0.97
   5   4  -6    5.90    0.69
   5   4  -6    5.85    0.94
   5   4  -6    5.92    1.18
   5   4  -6    6.20    0.76
   5   4  -6    6.05    0.76
   5   4  -5   66.50    3.79
   5   4  -5   57.99    4.46
   5   4  -5   53.36    4.23
   5   4  -5   64.80    3.80
   5   4  -5   64.18    3.59
   5   4  -5   61.81    3.62
   5   4  -5   60.87    3.66
   5   4  -4  115.99    7.40
   5   4  -4  109.00    7.29
   5   4  -4  108.00    6.98
   5   4  -4  121.12    6.34
   5   4  -4  131.73    6.60
   5   4  -3   74.22    5.06
   5   4  -3   66.91    4.92
   5   4  -3   73.34    4.53
   5   4  -2 1183.75   54.94
   5   4  -2 1115.42   54.78
   5   4  -2 1043.17   53.94
   5   4  -1   91.17    5.83
   5   4  -1   83.93    5.70
   5   4   0 1884.49   87.01
   5   4   0 1649.64   85.88
   5   4   0 1924.29   87.03
   5   4   1    7.30    0.94
   5   4   1    5.85    1.36
   5   4   2  109.82    6.33
   5   4   2  113.28    6.98
   5   4   3  274.76   14.59
   5   4   3  256.58   14.03
   5   4   3  273.66   14.62
   5   4   4   11.65    1.62
   5   4   4    9.78    1.31
   5   4   4    9.67    1.54
   5   4   5  760.64   39.49
   5   4   5  791.32   39.31
   5   4   5  785.88   39.63
   5   4   6    8.92    1.38
   5   4   6    6.92    1.25
   5   4   7  338.75   17.69
   5   4   7  320.44   17.63
   5   4   8  134.82    8.49
   5   4   8  153.52    8.85
   5   4   9    7.82    1.50
   5   4   9   10.64    1.82
   5   4   9   10.09    1.45
   5   4  10  208.77   11.73
   5   4  10  208.13   11.16
   5   4  10  186.26   10.08
   5   4  11   14.97    1.31
   5   4  11   17.09    1.96
   5   4  11   17.57    1.41
   5   4  11   16.20    1.66
   5   4  12  125.96    6.76
   5   4  12  124.01    7.17
   5   4  13   11.72    1.16
   5   4  13    9.66    2.00
   5   4  13    9.96    1.44
   5   4  14  266.13   13.42
   5   4  14  255.67   15.64
   5   4  14  252.48   13.80
   5   4  15  121.96    6.72
   5   4  15  122.40    8.83
   5   4  15  125.20    6.84
   5   4  15  117.59    7.13
   5   4  16    0.36    0.47
   5   4  16   -0.30    0.88
   5   4  16   -0.08    0.59
   5   4  16   -0.43    0.84
   5   4  17    1.16    0.62
   5   4  17    0.87    0.90
   5   4  17    1.37    0.66
   5   4  17    0.11    0.85
   5   4  18   11.24    1.24
   5   4  18   11.33    1.32
   5   4  18    9.26    1.51
   5   4  19   23.49    1.92
   5   4  19   21.32    2.10
   5   4  19   26.83    1.93
   5   4  20    4.37    1.02
  -5  -4 -21    0.16    0.38
   5   4  21    0.39    0.66
  -5  -4 -22   26.89    1.76
   5   4  22   33.58    1.94
   5   4  22   30.47    2.04
   5   4  23    1.66    0.34
   5   5 -17    1.81    0.35
   5   5 -16   -0.10    0.29
   5   5 -16    0.04    0.33
   5   5 -15   74.15    4.22
   5   5 -15   70.34    4.16
   5   5 -15   79.84    4.19
   5   5 -15   75.36    4.31
   5   5 -14    0.24    0.42
   5   5 -14    0.49    0.44
   5   5 -14    0.06    0.43
   5   5 -13   82.25    4.73
   5   5 -13   80.91    4.69
   5   5 -13   85.18    4.70
   5   5 -13   80.27    4.83
   5   5 -12    7.64    0.98
   5   5 -12    7.02    0.97
   5   5 -12    7.34    0.96
   5   5 -12    6.74    1.15
   5   5 -11   19.83    1.68
   5   5 -11   18.67    1.66
   5   5 -11   22.52    1.76
   5   5 -11   23.57    1.88
   5   5 -10  151.48    8.85
   5   5 -10  167.80    8.90
   5   5 -10  174.57    9.05
   5   5 -10  169.26    9.03
   5   5 -10  182.11    9.09
   5   5 -10  181.31    9.17
   5   5  -9    1.91    0.62
   5   5  -9    1.26    0.50
   5   5  -9    1.48    0.57
   5   5  -9    1.46    0.61
   5   5  -9    1.98    0.62
   5   5  -9    1.74    0.73
   5   5  -8  224.79   12.11
   5   5  -8  220.95   12.23
   5   5  -8  231.45   12.25
   5   5  -8  257.74   12.36
   5   5  -8  238.78   12.33
   5   5  -8  255.15   12.40
   5   5  -8  256.43   12.49
   5   5  -7    1.90    0.75
   5   5  -7    1.64    0.46
   5   5  -7    2.43    0.63
   5   5  -7    1.60    0.56
   5   5  -7    1.81    0.50
   5   5  -7    1.56    0.59
   5   5  -7    1.96    0.55
   5   5  -7    1.92    0.71
   5   5  -6    1.86    0.50
   5   5  -6    2.56    0.73
   5   5  -6    1.49    0.47
   5   5  -6    1.56    0.50
   5   5  -6    1.97    0.47
   5   5  -6    1.25    0.48
   5   5  -6    3.02    0.72
   5   5  -5  130.97    6.79
   5   5  -5  134.30    7.12
   5   5  -5  125.44    6.84
   5   5  -5  123.19    6.88
   5   5  -5  120.58    6.81
   5   5  -5  146.63    7.23
   5   5  -5  138.94    6.92
   5   5  -5  123.44    6.86
   5   5  -5  137.51    6.97
   5   5  -5  132.16    7.08
   5   5  -5  122.50    6.93
   5   5  -4   13.17    1.88
   5   5  -4   12.74    1.33
   5   5  -4   14.31    1.16
   5   5  -4   11.19    1.12
   5   5  -4   14.27    1.99
   5   5  -4   10.71    1.07
   5   5  -4   14.08    1.35
   5   5  -4   13.67    1.16
   5   5  -4   12.64    1.30
   5   5  -4   13.75    1.15
   5   5  -4   13.78    1.23
   5   5  -3  182.01    9.12
   5   5  -3  170.33   10.16
   5   5  -3  154.07   10.14
   5   5  -3  188.28    9.18
   5   5  -3  161.87    8.84
   5   5  -3  174.14    8.91
   5   5  -3  166.06    9.07
   5   5  -2  224.95   13.01
   5   5  -2  229.23   12.87
   5   5  -1  321.12   17.67
   5   5  -1  332.60   17.83
   5   5   0   16.66    2.03
   5   5   0   15.55    2.13
   5   5   1    0.80    0.34
   5   5   1   -0.36    0.96
   5   5   1    1.79    0.84
   5   5   2  192.27   10.55
   5   5   2  218.80   11.79
   5   5   3    9.40    1.23
   5   5   3   11.55    1.66
   5   5   4   15.76    2.06
   5   5   4   16.58    1.70
   5   5   5  139.25    8.29
   5   5   5  130.62    7.82
   5   5   6  135.36    8.37
   5   5   6  136.24    8.07
   5   5   7   54.08    4.18
   5   5   7   53.94    4.04
   5   5   7   47.88    4.09
   5   5   8   50.17    4.10
   5   5   8   60.53    4.29
   5   5   8   49.31    4.24
   5   5   9  158.33    9.50
   5   5   9  150.11    9.18
   5   5   9  150.90    9.45
   5   5  10   19.10    2.19
   5   5  10   21.51    2.64
   5   5  10   18.00    1.46
   5   5  10   21.69    2.58
   5   5  10   17.77    1.79
   5   5  11   51.11    3.12
   5   5  11   55.71    4.68
   5   5  11   60.29    4.75
   5   5  11   52.14    3.24
   5   5  11   52.15    3.59
   5   5  12    0.34    0.41
   5   5  12    0.96    1.13
   5   5  12    0.13    0.46
   5   5  12    0.29    0.69
   5   5  13   -0.06    0.41
   5   5  13    0.25    0.91
   5   5  13   -0.21    0.51
   5   5  13    0.31    0.75
   5   5  14   37.33    2.55
   5   5  14   35.38    3.97
   5   5  14   39.85    2.71
   5   5  14   40.01    3.05
   5   5  15   25.48    1.90
   5   5  15   26.01    3.30
   5   5  15   21.78    3.14
   5   5  15   22.43    2.28
   5   5  16    2.62    0.64
   5   5  16    0.56    0.96
   5   5  16    3.29    1.06
   5   5  17    1.17    0.58
   5   5  17    0.82    0.98
   5   5  17    0.11    0.87
   5   5  18   28.21    2.00
   5   5  18   26.29    2.10
   5   5  18   23.98    2.33
   5   5  19   32.63    2.40
   5   5  19   30.93    2.62
   5   5  19   36.63    2.37
   5   5  20    8.18    1.02
   5   5  20    8.00    1.22
   5   5  20    8.73    0.96
   5   5  21   51.04    3.15
   5   5  21   52.15    2.86
   5   5  22    2.48    0.49
   5   5  22    2.61    0.71
   5   5  23   34.85    1.92
   5   5  23   36.40    1.95
   5   6 -16   38.56    2.13
   5   6 -16   34.75    2.04
   5   6 -15    1.06    0.37
   5   6 -15    1.48    0.42
   5   6 -14   72.30    4.22
   5   6 -14   77.02    4.22
   5   6 -14   77.73    4.38
   5   6 -13   16.21    1.35
   5   6 -13   13.62    1.29
   5   6 -13   17.30    1.36
   5   6 -13   15.31    1.72
   5   6 -12    1.71    0.49
   5   6 -12    2.73    0.62
   5   6 -12    2.46    0.58
   5   6 -12    2.51    0.65
   5   6 -12    3.47    1.07
   5   6 -11   33.07    2.29
   5   6 -11   30.56    2.27
   5   6 -11   34.72    2.34
   5   6 -11   35.17    2.48
   5   6 -10    2.26    0.69
   5   6 -10    3.23    0.67
   5   6 -10    3.64    0.74
   5   6 -10    2.13    0.65
   5   6 -10    2.93    0.83
   5   6  -9  190.02   10.84
   5   6  -9  206.79   11.08
   5   6  -9  226.20   11.11
   5   6  -9  210.66   11.12
   5   6  -9  229.33   11.20
   5   6  -9  234.22   11.30
   5   6  -8    1.43    0.48
   5   6  -8    1.05    0.58
   5   6  -8    1.90    0.58
   5   6  -8    1.56    0.52
   5   6  -8    0.82    0.58
   5   6  -8    0.88    0.52
   5   6  -8    0.68    0.70
   5   6  -7   72.92    4.00
   5   6  -7   60.00    3.57
   5   6  -7   59.23    3.67
   5   6  -7   53.08    3.51
   5   6  -7   68.89    3.99
   5   6  -7   61.10    3.62
   5   6  -7   57.53    3.56
   5   6  -7   60.94    3.67
   5   6  -7   61.55    3.70
   5   6  -7   61.24    3.81
   5   6  -6   69.02    3.95
   5   6  -6   59.39    3.59
   5   6  -6   59.43    3.68
   5   6  -6   58.79    3.61
   5   6  -6   61.77    3.63
   5   6  -6   58.20    3.55
   5   6  -6   62.79    3.68
   5   6  -6   65.70    3.86
   5   6  -5    1.53    0.71
   5   6  -5    1.28    0.48
   5   6  -5    1.64    0.45
   5   6  -5    2.34    0.60
   5   6  -5    1.66    0.48
   5   6  -5    1.58    0.49
   5   6  -5    1.77    0.43
   5   6  -5    2.18    0.52
   5   6  -5    0.84    0.62
   5   6  -4   85.60    4.75
   5   6  -4   86.06    4.51
   5   6  -4   79.30    4.40
   5   6  -4   78.76    4.51
   5   6  -4   74.32    5.87
   5   6  -4   76.71    4.47
   5   6  -4   89.33    4.79
   5   6  -4   80.10    4.46
   5   6  -4   77.19    4.45
   5   6  -4   78.58    4.48
   5   6  -4   69.21    4.34
   5   6  -4   81.01    4.66
   5   6  -4   79.58    4.50
   5   6  -3    6.38    0.84
   5   6  -3    6.86    0.82
   5   6  -3    6.96    1.02
   5   6  -3    5.63    1.49
   5   6  -3    7.06    0.80
   5   6  -3    6.94    0.83
   5   6  -3    7.59    1.04
   5   6  -3    7.80    0.84
   5   6  -3    8.63    0.88
   5   6  -3    6.04    0.77
   5   6  -3    6.66    0.76
   5   6  -3    7.07    1.00
   5   6  -2    9.52    1.63
   5   6  -2   10.31    0.98
   5   6  -2   10.20    0.96
   5   6  -2   11.57    1.89
   5   6  -2   10.35    0.99
   5   6  -2    9.00    1.12
   5   6  -2    9.69    0.93
   5   6  -2   10.41    0.97
   5   6  -2   10.12    1.25
   5   6  -2    8.18    1.08
   5   6  -1    1.33    0.91
   5   6  -1    2.66    0.71
   5   6  -1    4.04    1.29
   5   6  -1    2.80    0.57
   5   6  -1    3.35    0.81
   5   6   0    0.94    0.73
   5   6   0    1.49    1.08
   5   6   1   98.13    6.74
   5   6   1  101.39    7.01
   5   6   2    1.47    1.04
   5   6   3  375.40   18.38
   5   6   3  314.26   17.13
   5   6   4   47.82    3.92
   5   6   4   42.83    3.24
   5   6   5    0.37    0.74
   5   6   5    0.78    0.55
   5   6   6    9.82    1.65
   5   6   6    8.46    1.66
   5   6   6    8.97    1.48
   5   6   7    5.78    1.43
   5   6   7    8.29    1.63
   5   6   7    8.03    1.39
   5   6   8   45.93    3.91
   5   6   8   42.89    3.95
   5   6   8   49.43    4.03
   5   6   8   46.36    3.20
   5   6   9    0.19    0.36
   5   6   9   -0.41    1.01
   5   6   9    0.74    0.71
   5   6   9    0.20    0.69
   5   6   9    0.26    0.68
   5   6  10   26.88    1.76
   5   6  10   27.47    2.99
   5   6  10   23.85    2.88
   5   6  10   26.19    1.87
   5   6  10   25.16    1.76
   5   6  10   22.64    2.14
   5   6  11   62.76    3.77
   5   6  11   66.35    3.74
   5   6  11   70.97    5.63
   5   6  11   74.02    5.53
   5   6  11   65.85    3.94
   5   6  11   71.67    4.38
   5   6  12    3.22    0.58
   5   6  12    3.34    1.31
   5   6  12    5.93    1.49
   5   6  12    3.97    0.73
   5   6  12    3.39    1.00
   5   6  13  258.68   13.20
   5   6  13  246.89   15.17
   5   6  13  249.66   13.35
   5   6  13  283.64   13.84
   5   6  13  242.79   15.38
   5   6  14    3.64    0.66
   5   6  14    3.13    1.27
   5   6  14    3.41    0.78
   5   6  14    3.55    1.12
   5   6  15  124.90    7.06
   5   6  15  122.99    9.01
   5   6  15  137.18    7.28
   5   6  15  139.03    7.67
   5   6  16   25.12    1.93
   5   6  16   28.29    2.14
   5   6  16   24.18    3.17
   5   6  16   26.40    2.48
   5   6  17    0.06    0.48
   5   6  17    0.62    0.62
   5   6  17    0.75    0.92
   5   6  18   58.19    3.54
   5   6  18   60.93    4.01
   5   6  19    0.95    0.49
   5   6  19    1.57    0.84
   5   6  20   67.93    4.04
   5   6  20   67.97    3.64
   5   6  21    7.29    0.87
   5   6  21    7.75    1.08
   5   6  21    8.03    0.82
   5   6  22   15.97    1.13
   5   6  22   18.18    1.18
   5   6  23    0.44    0.24
   5   6  23    0.97    0.38
   5   7 -15    5.82    0.56
   5   7 -15    5.35    0.59
   5   7 -14   12.59    1.05
   5   7 -14   13.29    1.05
   5   7 -13    6.51    0.76
   5   7 -13    5.93    0.75
   5   7 -13    4.88    1.13
   5   7 -12   51.27    3.16
   5   7 -12   57.15    3.22
   5   7 -12   47.70    3.31
   5   7 -11    2.17    0.47
   5   7 -11    0.74    0.51
   5   7 -11    0.75    0.47
   5   7 -11    0.51    0.84
   5   7 -10  139.42    7.01
   5   7 -10  129.35    6.97
   5   7 -10  118.38    6.84
   5   7 -10  130.85    6.98
   5   7 -10  123.73    6.99
   5   7  -9   -0.66    0.47
   5   7  -9    0.94    0.62
   5   7  -9    0.18    0.44
   5   7  -9   -0.07    0.53
   5   7  -9    0.27    0.49
   5   7  -9   -0.07    0.63
   5   7  -8  112.25    6.43
   5   7  -8  118.44    6.58
   5   7  -8  121.68    6.57
   5   7  -8  115.63    6.44
   5   7  -8  128.38    6.62
   5   7  -8  121.12    6.66
   5   7  -7   46.54    3.05
   5   7  -7   41.75    2.70
   5   7  -7   42.31    2.82
   5   7  -7   39.15    2.70
   5   7  -7   44.23    3.02
   5   7  -7   42.00    2.78
   5   7  -7   37.39    2.61
   5   7  -7   45.13    2.83
   5   7  -7   43.12    2.89
   5   7  -6    7.95    1.22
   5   7  -6    6.34    0.87
   5   7  -6    6.79    1.00
   5   7  -6    7.54    0.94
   5   7  -6    8.08    1.19
   5   7  -6    8.07    0.97
   5   7  -6    6.59    0.80
   5   7  -6    8.05    0.99
   5   7  -6    6.47    1.01
   5   7  -5  167.36    8.57
   5   7  -5  163.08    8.28
   5   7  -5  153.33    8.25
   5   7  -5  136.77    8.07
   5   7  -5  159.40    8.32
   5   7  -5  159.36    8.28
   5   7  -5  154.26    8.23
   5   7  -5  160.70    8.40
   5   7  -4    2.81    0.88
   5   7  -4    3.21    0.64
   5   7  -4    2.45    0.55
   5   7  -4    2.62    0.70
   5   7  -4    3.65    0.67
   5   7  -4    3.07    0.60
   5   7  -4    2.88    0.61
   5   7  -4    3.83    0.80
   5   7  -4    3.60    0.58
   5   7  -3  135.24    6.97
   5   7  -3  125.68    6.67
   5   7  -3  114.13    8.46
   5   7  -3  120.89    6.64
   5   7  -3  123.29    6.58
   5   7  -3  133.04    6.94
   5   7  -3  118.09    6.57
   5   7  -3  120.20    6.60
   5   7  -3  128.68    6.64
   5   7  -3  125.44    6.80
   5   7  -3  111.26    6.52
   5   7  -3  120.47    6.56
   5   7  -2   54.61    3.21
   5   7  -2   53.94    3.15
   5   7  -2   52.56    4.79
   5   7  -2   53.97    3.21
   5   7  -2   60.28    3.50
   5   7  -2   52.09    3.11
   5   7  -2   50.82    3.13
   5   7  -2   52.34    3.13
   5   7  -2   48.00    3.28
   5   7  -2   51.72    3.55
   5   7  -2   49.73    3.11
   5   7  -2   47.17    3.07
   5   7  -1   12.25    2.15
   5   7  -1   11.70    1.08
   5   7  -1   11.49    1.33
   5   7  -1   10.55    1.02
   5   7  -1   10.28    1.02
   5   7  -1   10.39    1.23
   5   7  -1   11.86    1.44
   5   7  -1   10.78    1.08
   5   7   0  216.90   11.91
   5   7   0  239.73   12.03
   5   7   0  246.47   12.02
   5   7   0  243.02   14.12
   5   7   0  247.97   12.36
   5   7   0  261.37   12.32
   5   7   0  221.95   11.93
   5   7   0  218.43   12.23
   5   7   0  256.29   12.50
   5   7   0  223.75   11.99
   5   7   1    1.01    0.48
   5   7   1    1.35    0.65
   5   7   1    0.38    0.40
   5   7   1    0.81    0.45
   5   7   1    1.52    0.69
   5   7   1    0.64    0.43
   5   7   1    0.75    0.37
   5   7   1    1.04    0.41
   5   7   1    1.33    0.71
   5   7   1    1.03    0.61
   5   7   2  116.70    6.28
   5   7   2  127.13    6.67
   5   7   2  120.64    6.48
   5   7   2  106.14    6.12
   5   7   2  138.28    6.86
   5   7   2  109.90    6.25
   5   7   3    3.03    0.55
   5   7   3    2.85    0.86
   5   7   3    2.34    0.86
   5   7   4   72.73    5.75
   5   7   4   74.17    4.52
   5   7   4   76.88    4.62
   5   7   4   64.87    4.08
   5   7   4   76.01    4.14
   5   7   5  112.11    6.36
   5   7   5  112.70    5.95
   5   7   5  115.68    7.72
   5   7   5  108.10    6.38
   5   7   5  104.26    5.94
   5   7   6   44.25    2.56
   5   7   6   44.90    4.01
   5   7   6   37.59    2.86
   5   7   6   38.31    2.53
   5   7   6   35.21    2.90
   5   7   7  286.85   14.13
   5   7   7  278.68   15.89
   5   7   7  270.67   14.50
   5   7   7  272.45   14.15
   5   7   7  280.28   14.59
   5   7   8   35.75    2.25
   5   7   8   34.88    3.48
   5   7   8   31.45    2.57
   5   7   8   32.45    2.24
   5   7   8   34.65    2.68
   5   7   9    5.82    0.78
   5   7   9    5.37    0.73
   5   7   9    5.51    1.43
   5   7   9    7.05    1.17
   5   7   9    5.30    0.73
   5   7   9    3.59    1.07
   5   7  10   36.94    3.77
   5   7  10   36.95    2.90
   5   7  10   38.05    2.50
   5   7  10   38.23    2.49
   5   7  10   41.62    2.49
   5   7  10   37.15    2.93
   5   7  11   12.55    1.14
   5   7  11   12.47    2.13
   5   7  11   14.98    1.67
   5   7  11   12.60    1.22
   5   7  11   14.45    1.68
   5   7  12  127.26    7.06
   5   7  12  139.36    9.10
   5   7  12  133.30    7.26
   5   7  12  152.12    7.82
   5   7  13   38.81    2.43
   5   7  13   31.91    3.72
   5   7  13   39.14    2.60
   5   7  13   35.64    2.98
   5   7  14   69.85    4.22
   5   7  14   70.05    6.01
   5   7  14   78.36    4.48
   5   7  14   83.59    4.97
   5   7  15    4.77    0.69
   5   7  15    3.86    1.47
   5   7  15    2.84    0.74
   5   7  15    4.92    1.17
   5   7  16   26.58    1.89
   5   7  16   27.99    2.07
   5   7  16   25.75    2.42
   5   7  17  138.16    7.74
   5   7  17  158.13    8.02
   5   7  17  150.39    8.35
   5   7  18   15.47    1.34
   5   7  18   13.42    1.76
   5   7  19   11.96    1.48
   5   7  19   18.53    1.46
   5   7  19   17.24    1.73
   5   7  19   13.35    1.20
   5   7  20    4.84    0.65
   5   7  20    5.20    0.88
   5   7  20    5.13    0.79
   5   7  20    4.26    0.98
   5   7  21    0.47    0.31
   5   7  21   -0.28    0.51
   5   7  21    1.09    0.67
   5   7  22    7.12    0.91
   5   7  22    7.29    0.63
   5   7  23    3.85    0.57
   5   8 -14    4.79    0.50
   5   8 -14    4.12    0.51
   5   8 -13   65.81    3.73
   5   8 -13   68.88    3.73
   5   8 -12    1.99    0.50
   5   8 -12    1.93    0.51
   5   8 -11   23.57    1.81
   5   8 -11   22.97    1.68
   5   8 -11   22.41    1.69
   5   8 -11   20.18    1.84
   5   8 -10    4.28    0.74
   5   8 -10    5.05    0.69
   5   8 -10    3.19    0.70
   5   8 -10    3.45    0.95
   5   8  -9    7.44    0.88
   5   8  -9    8.96    1.00
   5   8  -9    8.56    1.03
   5   8  -9    7.64    0.98
   5   8  -9    7.79    1.02
   5   8  -8  108.54    5.89
   5   8  -8  112.10    6.04
   5   8  -8  108.26    5.99
   5   8  -8  108.50    5.99
   5   8  -8   98.15    5.92
   5   8  -7    0.38    0.50
   5   8  -7    0.89    0.60
   5   8  -7    0.91    0.56
   5   8  -7    0.25    0.74
   5   8  -7    1.06    0.56
   5   8  -7    0.42    0.52
   5   8  -7    0.75    0.63
   5   8  -6  103.40    5.45
   5   8  -6   92.62    5.39
   5   8  -6   91.77    5.39
   5   8  -6   95.91    5.42
   5   8  -6   90.70    5.40
   5   8  -6   97.89    5.65
   5   8  -5    1.43    0.88
   5   8  -5    0.96    0.56
   5   8  -5    1.89    0.81
   5   8  -5    1.55    0.61
   5   8  -5    2.06    0.60
   5   8  -5    1.96    0.72
   5   8  -5    1.23    0.60
   5   8  -4   12.44    1.26
   5   8  -4   11.27    1.46
   5   8  -4   10.38    1.16
   5   8  -4   12.79    1.23
   5   8  -4   10.45    1.24
   5   8  -4   11.55    1.09
   5   8  -3   14.33    1.62
   5   8  -3   13.49    1.35
   5   8  -3   14.53    1.28
   5   8  -3   14.02    1.36
   5   8  -3   13.83    1.30
   5   8  -3   13.27    1.41
   5   8  -3   13.62    1.27
   5   8  -2    1.41    0.51
   5   8  -2    0.49    0.47
   5   8  -2    0.29    0.99
   5   8  -2   -0.06    0.48
   5   8  -2    0.53    0.71
   5   8  -2    0.90    0.47
   5   8  -2    1.13    0.48
   5   8  -2    0.56    0.59
   5   8  -1   65.64    3.71
   5   8  -1   58.62    3.61
   5   8  -1   53.70    3.58
   5   8  -1   59.67    3.61
   5   8  -1   70.23    4.05
   5   8  -1   59.56    3.75
   5   8  -1   64.17    4.15
   5   8  -1   59.41    3.64
   5   8   0   15.08    1.31
   5   8   0   13.70    1.28
   5   8   0   14.27    1.51
   5   8   0   12.68    1.26
   5   8   0   12.91    1.27
   5   8   0   14.82    1.45
   5   8   0   14.29    1.71
   5   8   0   14.53    1.31
   5   8   0   14.75    1.32
   5   8   1  384.99   21.96
   5   8   1  424.61   21.98
   5   8   1  449.94   22.02
   5   8   1  439.54   21.99
   5   8   1  501.23   22.52
   5   8   1  490.90   22.38
   5   8   1  415.95   21.97
   5   8   1  410.60   21.94
   5   8   1  432.73   22.18
   5   8   1  509.46   22.65
   5   8   1  461.37   22.08
   5   8   2   64.35    4.37
   5   8   2   76.28    4.34
   5   8   2   82.21    4.41
   5   8   2   81.97    6.47
   5   8   2   79.70    4.80
   5   8   2   76.88    4.63
   5   8   2   70.07    4.32
   5   8   2   76.62    4.34
   5   8   2   72.80    4.55
   5   8   2   79.69    4.93
   5   8   2   79.71    4.42
   5   8   3    9.36    1.13
   5   8   3    9.64    0.99
   5   8   3   11.19    2.14
   5   8   3    8.59    1.36
   5   8   3    9.90    1.25
   5   8   3    9.54    1.02
   5   8   3    8.05    0.96
   5   8   3    9.93    1.21
   5   8   3    9.74    1.48
   5   8   4   76.48    4.38
   5   8   4   88.66    6.51
   5   8   4   75.59    4.38
   5   8   4   82.49    4.94
   5   8   4   82.44    4.71
   5   8   4   71.04    4.39
   5   8   4   82.28    5.02
   5   8   4   72.12    4.66
   5   8   4   79.66    4.52
   5   8   4   80.28    4.47
   5   8   5   29.45    2.10
   5   8   5   34.14    2.24
   5   8   5   31.52    2.12
   5   8   5   35.10    2.66
   5   8   5   32.28    2.40
   5   8   5   27.33    2.23
   5   8   5   31.65    2.67
   5   8   5   33.79    2.27
   5   8   6  123.55    6.26
   5   8   6  108.64    6.07
   5   8   6  134.63    8.42
   5   8   6  104.10    6.05
   5   8   6  128.13    6.78
   5   8   6  114.34    6.44
   5   8   6   98.28    6.20
   5   8   6  129.59    6.87
   5   8   6  119.34    6.28
   5   8   7    7.45    0.86
   5   8   7   10.56    1.06
   5   8   7   10.59    1.45
   5   8   7    7.63    1.13
   5   8   7   10.45    1.08
   5   8   7    9.34    1.41
   5   8   8   40.81    2.54
   5   8   8   36.70    3.89
   5   8   8   40.45    2.98
   5   8   8   34.38    2.60
   5   8   8   37.81    2.53
   5   8   8   36.47    2.94
   5   8   9   30.68    2.16
   5   8   9   34.35    3.64
   5   8   9   31.42    2.62
   5   8   9   27.27    2.24
   5   8   9   32.19    2.20
   5   8   9   32.45    2.63
   5   8  10   12.19    1.14
   5   8  10   10.41    1.99
   5   8  10    9.97    1.54
   5   8  10   10.53    1.03
   5   8  10   10.47    1.11
   5   8  10   11.72    1.55
   5   8  11  103.75    5.82
   5   8  11  117.31    7.86
   5   8  11  121.16    6.49
   5   8  11  104.73    5.84
   5   8  11  100.51    5.82
   5   8  11  110.75    6.42
   5   8  12   54.46    4.93
   5   8  12   52.05    3.82
   5   8  12   54.16    3.34
   5   8  12   57.96    3.91
   5   8  13   29.84    3.71
   5   8  13   36.65    2.92
   5   8  13   38.17    2.50
   5   8  13   37.17    2.98
   5   8  14    5.39    1.56
   5   8  14    3.35    1.12
   5   8  14    3.76    0.72
   5   8  14    4.23    1.13
   5   8  15    7.50    0.83
   5   8  15   10.82    1.97
   5   8  15    8.84    1.41
   5   8  15    8.97    1.06
   5   8  15    9.39    1.44
   5   8  16    3.66    0.58
   5   8  16    4.87    1.14
   5   8  16    4.04    0.74
   5   8  16    4.00    1.17
   5   8  17   14.03    1.65
   5   8  17   12.62    1.28
   5   8  17   14.04    1.72
   5   8  17   13.52    1.12
   5   8  18   47.97    3.30
   5   8  18   49.38    3.04
   5   8  18   44.16    2.78
   5   8  19    4.67    1.00
   5   8  19    6.11    0.83
   5   8  20    3.68    0.80
   5   8  20    4.22    0.66
   5   8  20    5.14    1.01
   5   8  21    1.97    0.63
   5   8  21    3.19    0.77
   5   8  22    0.81    0.49
   5   9 -13    0.14    0.45
   5   9 -13    0.22    0.26
   5   9 -12   26.28    1.74
   5   9 -12   27.40    1.72
   5   9 -11    6.95    0.75
   5   9 -11    5.59    0.72
   5   9 -10    3.33    1.64
   5   9 -10    5.22    0.72
   5   9 -10    4.50    0.71
   5   9  -9    4.42    0.65
   5   9  -9    5.73    1.02
   5   9  -9    4.54    0.73
   5   9  -9    3.91    0.71
   5   9  -8   28.76    2.15
   5   9  -8   35.19    2.33
   5   9  -8   32.12    2.27
   5   9  -8   34.21    2.30
   5   9  -7  134.43    7.07
   5   9  -7  139.44    7.19
   5   9  -7  125.54    7.03
   5   9  -7  130.20    7.10
   5   9  -7  135.18    7.28
   5   9  -7  139.14    7.15
   5   9  -7  114.07    6.91
   5   9  -6    6.85    1.02
   5   9  -6    8.55    1.06
   5   9  -6    9.23    1.32
   5   9  -6    8.68    1.07
   5   9  -6    8.90    1.08
   5   9  -6    6.76    0.99
   5   9  -5    8.16    1.08
   5   9  -5   11.57    1.21
   5   9  -5    8.81    1.10
   5   9  -5    9.86    1.39
   5   9  -5    9.06    1.10
   5   9  -5    7.52    1.03
   5   9  -5    8.14    1.01
   5   9  -4   20.54    1.74
   5   9  -4   24.41    1.83
   5   9  -4   19.94    1.69
   5   9  -4   23.51    2.03
   5   9  -4   19.94    1.67
   5   9  -4   20.11    1.73
   5   9  -4   19.98    1.62
   5   9  -3    1.16    0.62
   5   9  -3    0.63    0.55
   5   9  -3    1.08    0.56
   5   9  -3   -0.19    0.53
   5   9  -3    0.38    0.46
   5   9  -2   23.03    1.82
   5   9  -2   21.72    1.75
   5   9  -2   17.75    1.64
   5   9  -2   21.13    1.71
   5   9  -1   19.07    1.64
   5   9  -1   19.18    1.64
   5   9  -1   24.90    2.06
   5   9  -1   18.37    1.62
   5   9  -1   19.68    1.65
   5   9  -1   16.63    1.58
   5   9  -1   18.92    1.62
   5   9   0  218.10   11.10
   5   9   0  213.21   11.08
   5   9   0  220.50   13.83
   5   9   0  216.42   11.06
   5   9   0  218.81   11.15
   5   9   0  237.48   11.52
   5   9   0  206.87   11.08
   5   9   0  209.55   11.08
   5   9   0  182.32   10.99
   5   9   0  220.25   11.15
   5   9   1    4.63    0.83
   5   9   1    4.06    0.77
   5   9   1    3.43    0.74
   5   9   1    2.18    1.45
   5   9   1    4.17    1.17
   5   9   1    4.85    0.82
   5   9   1    5.06    0.83
   5   9   1    4.94    1.07
   5   9   1    4.13    0.79
   5   9   1    4.05    0.78
   5   9   1    5.13    0.90
   5   9   2   18.10    1.51
   5   9   2   17.20    1.57
   5   9   2   20.82    3.10
   5   9   2   18.16    1.53
   5   9   2   18.87    1.98
   5   9   2   22.58    1.94
   5   9   2   16.81    1.53
   5   9   2   15.05    1.47
   5   9   2   18.08    1.60
   5   9   2   15.72    1.52
   5   9   3   88.30    4.84
   5   9   3   85.11    6.97
   5   9   3   84.21    4.85
   5   9   3   97.98    5.50
   5   9   3   88.63    5.22
   5   9   3   85.73    4.94
   5   9   3   81.63    4.86
   5   9   3   74.81    4.93
   5   9   4   40.52    2.89
   5   9   4   46.63    2.79
   5   9   4   41.59    2.86
   5   9   4   47.53    4.73
   5   9   4   48.67    3.39
   5   9   4   47.50    2.93
   5   9   4   43.51    2.79
   5   9   4   48.27    3.21
   5   9   4   37.99    2.93
   5   9   4   36.61    2.89
   5   9   4   45.53    2.92
   5   9   5  140.86    7.41
   5   9   5  121.37    6.67
   5   9   5  125.81    6.83
   5   9   5  148.87    9.44
   5   9   5  116.24    6.69
   5   9   5  127.96    7.10
   5   9   5  113.28    6.94
   5   9   5  145.71    7.53
   5   9   5  116.12    6.91
   5   9   5  123.99    6.83
   5   9   6   12.24    1.16
   5   9   6   13.07    1.33
   5   9   6   15.35    2.54
   5   9   6   12.47    1.30
   5   9   6   13.45    1.73
   5   9   6   13.52    1.52
   5   9   6   13.76    1.33
   5   9   6   13.36    1.75
   5   9   7   21.54    1.65
   5   9   7   21.19    2.02
   5   9   7   25.24    3.25
   5   9   7   23.53    1.84
   5   9   7   26.40    2.35
   5   9   7   22.63    2.05
   5   9   7   22.00    2.22
   5   9   7   23.63    1.85
   5   9   8   12.07    1.23
   5   9   8   11.83    1.66
   5   9   8   10.77    1.39
   5   9   8   10.47    1.17
   5   9   8   11.25    1.61
   5   9   8    9.70    2.13
   5   9   9    1.23    0.54
   5   9   9    0.59    0.52
   5   9   9    1.10    1.10
   5   9   9    0.74    0.93
   5   9   9    1.41    0.74
   5   9   9    0.76    0.98
   5   9  10  166.70   10.56
   5   9  10  171.72    8.84
   5   9  10  135.63    8.37
   5   9  10  154.19    8.28
   5   9  10  165.20    8.81
   5   9  11    4.53    0.76
   5   9  11    2.72    1.11
   5   9  11    3.58    0.92
   5   9  11    3.01    1.34
   5   9  11    4.54    1.17
   5   9  12   16.18    1.89
   5   9  12   15.67    1.37
   5   9  12   20.18    2.83
   5   9  12   17.05    1.41
   5   9  12   18.98    2.00
   5   9  13    3.72    1.44
   5   9  13    5.90    1.26
   5   9  13    3.79    0.66
   5   9  13    2.81    1.04
   5   9  14    1.03    0.96
   5   9  14   -0.71    0.98
   5   9  14   -0.29    0.48
   5   9  14    0.32    0.92
   5   9  15   48.93    3.51
   5   9  15   48.98    3.06
   5   9  15   51.23    3.62
   5   9  16    2.12    0.96
   5   9  16    2.32    0.61
   5   9  16    2.41    1.03
   5   9  17   32.08    2.51
   5   9  17   30.17    2.08
   5   9  17   29.49    2.52
   5   9  18    0.46    0.76
   5   9  18    0.30    0.39
   5   9  18   -0.60    0.88
   5   9  19    4.69    0.91
   5   9  19    4.40    0.68
   5   9  19    6.14    1.05
   5   9  20    3.48    0.75
   5   9  20    3.45    0.81
   5   9  21    3.01    0.58
   5   9  21    2.56    0.67
   5   9  22    3.71    0.59
   5  10 -12    0.28    0.23
   5  10 -11    7.67    0.73
   5  10 -11    7.88    0.94
   5  10 -10   19.69    1.48
   5  10 -10   22.31    1.53
   5  10  -9    5.15    0.64
   5  10  -9    5.93    0.76
   5  10  -9    5.17    0.74
   5  10  -8   42.93    2.66
   5  10  -8   43.86    3.31
   5  10  -8   39.92    2.71
   5  10  -8   46.28    2.79
   5  10  -7   11.13    1.10
   5  10  -7    8.83    1.08
   5  10  -7   11.64    1.16
   5  10  -6  114.54    6.58
   5  10  -6  119.52    6.39
   5  10  -6  114.27    6.47
   5  10  -6  114.44    6.56
   5  10  -6  112.95    6.38
   5  10  -6  117.74    6.42
   5  10  -5    4.75    0.97
   5  10  -5    5.98    1.15
   5  10  -5    5.55    0.90
   5  10  -5    4.67    0.87
   5  10  -5    4.50    1.09
   5  10  -5    6.04    0.92
   5  10  -5    4.29    0.78
   5  10  -4   12.06    1.28
   5  10  -4   12.70    1.57
   5  10  -4   12.82    1.34
   5  10  -4   11.02    1.24
   5  10  -4   12.44    1.55
   5  10  -4   11.55    1.25
   5  10  -4    8.40    1.04
   5  10  -3   48.33    3.19
   5  10  -3   46.39    3.11
   5  10  -3   49.04    3.13
   5  10  -3   46.29    3.01
   5  10  -2    1.31    0.59
   5  10  -2    2.77    0.76
   5  10  -2    3.06    0.77
   5  10  -2    1.92    0.71
   5  10  -2    2.28    0.68
   5  10  -1   53.14    3.38
   5  10  -1   54.87    3.37
   5  10  -1   49.57    3.37
   5  10  -1   54.20    3.40
   5  10   0   -0.23    0.56
   5  10   0    0.07    0.55
   5  10   0   -0.33    1.12
   5  10   0    0.67    0.53
   5  10   0    1.34    0.97
   5  10   0    0.31    0.57
   5  10   0    0.53    0.55
   5  10   1   25.37    1.95
   5  10   1   25.49    2.02
   5  10   1   24.43    1.91
   5  10   1   28.86    2.41
   5  10   1   25.02    2.01
   5  10   1   24.27    2.00
   5  10   1   33.06    3.96
   5  10   1   23.34    1.99
   5  10   2   99.82    5.48
   5  10   2   90.08    7.68
   5  10   2   98.05    5.57
   5  10   2   91.19    5.55
   5  10   2   96.31    5.62
   5  10   2   94.69    5.57
   5  10   2  104.55    5.96
   5  10   3    0.51    0.49
   5  10   3    0.95    1.27
   5  10   3   -0.11    0.94
   5  10   3    0.44    0.66
   5  10   3    0.10    0.81
   5  10   3    0.08    0.58
   5  10   3    0.29    1.58
   5  10   4    8.56    1.26
   5  10   4    6.04    0.99
   5  10   4    4.92    0.81
   5  10   4    6.27    1.77
   5  10   4    7.84    1.40
   5  10   4    6.25    1.19
   5  10   4    2.79    2.32
   5  10   5    1.99    0.70
   5  10   5    2.37    0.57
   5  10   5    3.07    1.38
   5  10   5    1.22    1.45
   5  10   5   -0.23    1.00
   5  10   5    1.78    0.89
   5  10   6   24.22    2.09
   5  10   6   29.88    2.06
   5  10   6   33.29    3.92
   5  10   6   28.87    2.83
   5  10   6   32.83    2.54
   5  10   6   34.44    2.76
   5  10   6   28.80    2.21
   5  10   7   13.91    1.27
   5  10   7   15.99    2.72
   5  10   7   13.85    2.07
   5  10   7   16.01    1.92
   5  10   7   17.25    1.77
   5  10   7   17.63    1.54
   5  10   8   -0.29    0.56
   5  10   8    0.29    1.09
   5  10   8   -0.11    0.93
   5  10   8    0.92    0.83
   5  10   9  126.68    9.42
   5  10   9  148.27    7.99
   5  10   9  131.05    7.67
   5  10   9  138.08    7.47
   5  10  10   15.00    2.52
   5  10  10   15.63    1.88
   5  10  10   13.14    1.50
   5  10  10   13.70    1.37
   5  10  11   14.65    2.51
   5  10  11   18.35    1.92
   5  10  11   12.94    1.50
   5  10  11   13.89    1.34
   5  10  12    5.92    1.00
   5  10  12    6.24    0.87
   5  10  13   10.90    1.58
   5  10  14   25.64    2.23
   5  10  14   19.89    1.53
   5  10  15   12.84    1.56
   5  10  15    8.70    0.90
   5  10  16   22.46    2.02
   5  10  16   18.55    1.42
   5  10  17   -0.23    0.73
   5  10  17    0.04    0.33
   5  10  18   26.47    2.12
   5  10  19   42.01    2.78
   5  10  20   11.14    1.13
   5  10  21    0.63    0.37
   5  11 -10    0.08    0.25
   5  11  -9   12.60    1.04
   5  11  -9   14.46    1.58
   5  11  -8    1.67    0.43
   5  11  -8    3.02    0.57
   5  11  -8    1.76    1.08
   5  11  -7   96.88    5.32
   5  11  -7   84.96    5.64
   5  11  -7  100.83    5.39
   5  11  -7  106.89    5.48
   5  11  -6   50.95    3.17
   5  11  -6   53.35    3.36
   5  11  -6   51.57    3.23
   5  11  -6   58.82    3.36
   5  11  -6   48.00    3.98
   5  11  -5   -0.38    0.75
   5  11  -5    0.06    0.51
   5  11  -5    1.47    2.31
   5  11  -5    0.23    0.69
   5  11  -5    0.39    0.48
   5  11  -5   -0.07    0.73
   5  11  -4   28.08    2.30
   5  11  -4   28.24    2.32
   5  11  -4   26.07    2.91
   5  11  -4   25.96    2.03
   5  11  -4   28.92    2.18
   5  11  -3    1.97    0.96
   5  11  -3    3.41    2.06
   5  11  -3    3.29    0.98
   5  11  -3    1.30    0.63
   5  11  -3    3.89    0.99
   5  11  -3    1.68    0.53
   5  11  -2    7.14    1.23
   5  11  -2    5.17    0.88
   5  11  -2    5.74    1.90
   5  11  -2    5.85    0.86
   5  11  -2    3.29    0.79
   5  11  -2    4.80    0.77
   5  11  -1    5.10    0.90
   5  11  -1    6.20    1.24
   5  11  -1    6.16    0.93
   5  11  -1    7.10    1.01
   5  11   0    6.82    1.00
   5  11   0    8.56    1.04
   5  11   0    6.57    1.01
   5  11   1   33.12    2.21
   5  11   1   29.73    2.88
   5  11   1   25.41    3.63
   5  11   1   32.52    2.61
   5  11   1   26.53    2.21
   5  11   1   24.64    2.93
   5  11   1   29.10    2.65
   5  11   1   29.12    2.25
   5  11   2   19.20    1.66
   5  11   2   16.21    2.97
   5  11   2   21.93    2.67
   5  11   2   19.72    1.77
   5  11   2   20.73    2.11
   5  11   2   21.79    3.02
   5  11   2   21.36    2.23
   5  11   2   21.12    1.80
   5  11   3  131.54    7.27
   5  11   3  116.26    9.57
   5  11   3  129.97    7.75
   5  11   3  149.88    7.89
   5  11   3  142.30    7.99
   5  11   4   19.26    1.59
   5  11   4   16.17    2.84
   5  11   4   17.32    2.92
   5  11   4   22.82    2.14
   5  11   4   17.58    2.13
   5  11   5    2.54    0.80
   5  11   5    3.22    0.67
   5  11   5    5.83    1.74
   5  11   5    4.98    2.38
   5  11   5    3.33    1.03
   5  11   5    4.03    1.17
   5  11   6   14.81    1.32
   5  11   6   16.60    2.72
   5  11   6   15.21    1.74
   5  11   6   15.58    1.98
   5  11   6   16.71    1.56
   5  11   7   18.94    1.56
   5  11   7   19.05    3.02
   5  11   7   25.32    2.31
   5  11   7   19.76    2.02
   5  11   7   23.26    2.33
   5  11   7   23.45    1.88
   5  11   8   68.38    4.42
   5  11   8   70.60    4.23
   5  11   8   76.13    4.57
   5  11   8   75.72    4.03
   5  11   9   31.68    2.65
   5  11   9   29.22    2.36
   5  11   9   28.69    2.14
   5  11   9   28.60    2.61
   5  11  10   11.51    1.61
   5  11  10   12.05    1.44
   5  11  10   12.28    1.25
   5  11  10   11.54    1.64
   5  11  11    0.31    0.50
   5  11  11   -0.40    0.92
   5  11  11    0.31    0.64
   5  11  11    0.11    0.88
   5  11  12    6.27    1.28
   5  11  12    4.70    0.92
   5  11  12    6.32    1.26
   5  11  12    7.06    0.86
   5  11  13   18.39    1.93
   5  11  13   15.96    1.56
   5  11  13   19.26    1.44
   5  11  13   22.66    2.06
   5  11  14   30.88    2.56
   5  11  15   38.07    2.82
   5  11  16    3.76    0.96
   5  11  17    5.11    0.96
   5  11  18    0.45    0.58
   5  11  19    3.66    0.72
   5  11  20   16.56    1.31
   5  11  20   19.27    1.42
   5  12  -8   14.66    1.05
   5  12  -7    5.21    0.57
   5  12  -7    4.64    0.61
   5  12  -6    0.68    0.38
   5  12  -6    0.73    0.42
   5  12  -5   83.58    4.48
   5  12  -5   75.82    4.58
   5  12  -5   81.03    4.52
   5  12  -5   82.36    4.97
   5  12  -4    0.06    0.67
   5  12  -4    1.21    1.72
   5  12  -4    0.26    0.63
   5  12  -4   -0.17    0.46
   5  12  -4   -2.39    2.23
   5  12  -3    0.64    0.78
   5  12  -3    0.89    0.74
   5  12  -3    0.57    2.31
   5  12  -3    0.79    0.50
   5  12  -3    2.23    2.54
   5  12  -2    7.65    1.20
   5  12  -2    7.73    0.96
   5  12  -2    6.11    2.74
   5  12  -2    9.40    1.28
   5  12  -2    8.18    0.98
   5  12  -2    9.78    2.72
   5  12  -2    6.52    0.84
   5  12  -1    1.60    0.84
   5  12  -1    1.89    0.59
   5  12  -1   -0.78    2.90
   5  12  -1    1.95    0.62
   5  12  -1    2.12    0.61
   5  12   0   14.04    1.77
   5  12   0   18.65    1.50
   5  12   0   17.47    1.56
   5  12   0   16.82    1.50
   5  12   1    5.93    0.94
   5  12   1    6.95    0.92
   5  12   1    5.25    1.22
   5  12   1    6.73    0.95
   5  12   2   18.76    1.58
   5  12   2   20.83    2.87
   5  12   2   22.94    2.06
   5  12   2   20.67    1.72
   5  12   3   17.19    1.49
   5  12   3   14.73    2.41
   5  12   3   21.40    2.00
   5  12   3   16.10    1.91
   5  12   3   21.46    1.72
   5  12   4    0.89    0.51
   5  12   4    0.10    0.84
   5  12   4   -0.53    0.93
   5  12   5   28.72    2.01
   5  12   5   32.09    2.51
   5  12   5   31.00    2.63
   5  12   5   27.12    2.18
   5  12   6   29.71    2.10
   5  12   6   34.01    2.62
   5  12   6   32.92    2.78
   5  12   6   35.02    2.39
   5  12   7   48.15    3.02
   5  12   7   52.71    3.54
   5  12   7   54.28    3.77
   5  12   7   55.47    3.33
   5  12   8    8.91    1.26
   5  12   8    9.40    1.15
   5  12   8    9.63    1.49
   5  12   9    1.28    0.59
   5  12   9    2.20    0.80
   5  12   9    0.80    0.90
   5  12  10    6.86    1.15
   5  12  10    9.23    1.02
   5  12  10    6.41    1.25
   5  12  11    0.22    0.46
   5  12  11    0.72    0.92
   5  12  11    0.21    0.57
   5  12  11   -0.66    0.88
   5  12  12   19.89    1.98
   5  12  12   17.99    1.67
   5  12  12   22.07    1.57
   5  12  12   21.28    2.01
   5  12  13    5.53    1.17
   5  12  13    5.16    0.85
   5  12  13    6.00    1.12
   5  12  13    5.34    0.69
   5  12  14   30.28    2.18
   5  12  14   30.32    2.21
   5  12  15   -0.48    0.71
   5  12  15   -0.43    0.71
   5  12  16    0.43    0.66
   5  12  16   -0.57    0.66
   5  12  17    8.98    1.07
   5  12  17    9.76    1.09
   5  12  18    3.82    0.68
   5  12  18    3.02    0.64
   5  12  19    2.11    0.49
   5  12  19    2.31    0.50
   5  13  -5    3.90    0.50
   5  13  -3    0.77    0.40
   5  13  -3    0.95    0.55
   5  13  -2    6.61    0.75
   5  13  -2    4.94    0.84
   5  13  -2    6.42    0.96
   5  13  -1    9.89    1.22
   5  13  -1   12.97    1.09
   5  13  -1   14.26    1.36
   5  13  -1    9.78    0.96
   5  13   0    1.65    0.76
   5  13   0    2.37    0.55
   5  13   0    2.16    0.56
   5  13   1   19.28    1.73
   5  13   1   18.36    1.45
   5  13   1   19.80    1.52
   5  13   2    0.40    0.47
   5  13   2    1.14    0.49
   5  13   2    1.92    0.77
   5  13   2    0.97    0.78
   5  13   3   -0.12    0.52
   5  13   3   -0.19    0.42
   5  13   3    0.94    0.77
   5  13   4   22.53    1.61
   5  13   4   23.98    2.04
   5  13   5   18.12    1.38
   5  13   5   20.24    1.82
   5  13   5   18.26    1.85
   5  13   5   18.18    1.57
   5  13   6    5.80    0.92
   5  13   6    7.45    1.15
   5  13   6    6.69    0.73
   5  13   6    4.55    1.09
   5  13   7   17.18    1.80
   5  13   7   18.68    1.74
   5  13   7   16.36    1.77
   5  13   7   20.41    1.57
   5  13   8   49.51    3.32
   5  13   8   50.66    3.21
   5  13   8   43.00    3.28
   5  13   8   50.59    3.04
   5  13   9   10.85    1.28
   5  13   9   13.02    1.17
   5  13   9   10.98    1.40
   5  13  10   -0.10    0.40
   5  13  10    0.06    0.61
   5  13  10    0.39    0.72
   5  13  11   12.39    1.23
   5  13  11   12.73    1.10
   5  13  11   11.66    1.40
   5  13  12    7.83    0.93
   5  13  12    7.97    0.78
   5  13  12    6.88    1.10
   5  13  13   16.28    1.36
   5  13  13   20.09    1.71
   5  13  14    1.34    0.44
   5  13  14    1.78    0.69
   5  13  15    0.20    0.57
   5  13  15    0.20    0.52
   5  13  16    2.56    0.62
   5  13  16    2.47    0.58
   5  13  17    0.83    0.44
   5  13  17    0.82    0.38
   5  14  -3    0.12    0.22
   5  14  -2   12.39    0.88
   5  14  -2   10.07    0.93
   5  14  -1    3.42    0.48
   5  14  -1    2.77    0.59
   5  14   0    7.90    0.85
   5  14   0    8.45    0.76
   5  14   0    7.97    0.91
   5  14   0    7.45    0.69
   5  14   1    0.30    0.47
   5  14   1    0.22    0.31
   5  14   1    0.34    0.31
   5  14   2    7.05    0.69
   5  14   2    5.22    0.84
   5  14   2    6.76    0.74
   5  14   3    3.89    0.74
   5  14   3    2.79    0.48
   5  14   3    2.94    0.73
   5  14   3    4.49    0.61
   5  14   4    1.61    0.68
   5  14   4    3.30    0.76
   5  14   4    2.34    0.41
   5  14   5   59.05    3.58
   5  14   6   13.32    1.33
   5  14   6   14.15    1.20
   5  14   7    2.80    0.59
   5  14   7    3.37    0.73
   5  14   8    1.54    0.64
   5  14   8    1.15    0.60
   5  14   8    3.19    0.54
   5  14   9    0.99    0.59
   5  14   9    0.48    0.56
   5  14   9    1.14    0.40
   5  14  10   19.01    1.63
   5  14  10   20.11    1.52
   5  14  10   21.73    1.41
   5  14  10   16.57    1.57
   5  14  11    2.88    0.68
   5  14  11    1.80    0.55
   5  14  11    2.29    0.65
   5  14  11    3.74    0.49
   5  14  12    2.79    0.67
   5  14  12    2.29    0.48
   5  14  12    2.69    0.61
   5  14  13   -0.04    0.45
   5  14  13   -0.51    0.32
   5  14  13    0.32    0.39
   5  14  14    1.07    0.37
   5  15   1    0.35    0.26
   5  15   2    1.03    0.37
   5  15   4    1.40    0.36
   5  15   4    1.44    0.47
   5  15   4    1.72    0.34
   5  15   5    1.10    0.40
   5  15   5    0.65    0.44
   5  15   6    2.95    0.54
   5  15   6    3.12    0.58
   5  15   6    4.30    0.51
   5  15   7    3.98    0.60
   5  15   7    6.17    0.68
   5  15   7    5.59    0.58
   5  15   8    5.50    0.70
   5  15   8    6.41    0.72
   5  15   8    7.52    0.64
   5  15   9    2.39    0.47
   5  15   9    2.81    0.39
   5  15  10    0.83    0.34
  -6  10   5   21.06    1.29
  -6  10   4    1.55    0.33
  -6  10   3   31.08    1.84
  -6  10   2    0.11    0.25
  -6  10   1   21.52    1.39
  -6  10   0   16.71    1.02
  -6  10  -1    0.55    0.28
  -6  10  -1    0.54    0.24
  -6  10  -2   70.81    3.66
  -6  10  -2   68.04    3.59
  -6  10  -3    4.30    0.44
  -6  10  -3    4.53    0.45
  -6  10  -3    3.92    0.43
  -6  10  -4    5.24    0.47
  -6  10  -5    0.14    0.16
  -6   9   9   27.89    1.69
  -6   9   8    1.61    0.37
  -6   9   7    0.64    0.29
  -6   9   7    0.14    0.22
  -6   9   6   13.38    1.03
  -6   9   6   14.21    1.01
   6  -9  -6   12.66    1.06
  -6   9   5    0.23    0.31
   6  -9  -5    0.95    0.35
  -6   9   5    0.41    0.32
  -6   9   4   49.00    2.81
  -6   9   4   52.29    2.91
   6  -9  -4   50.09    2.98
   6  -9  -3    3.00    0.54
  -6   9   3    3.62    0.55
  -6   9   2    0.13    0.37
   6  -9  -1    0.40    0.39
  -6   9   1    0.85    0.40
  -6   9   1    0.61    0.29
  -6   9   0    6.56    0.68
   6  -9   0    7.96    0.84
   6  -9   1   36.98    2.36
  -6   9  -1   37.18    2.21
   6  -9   2   13.12    1.12
  -6   9  -2   12.73    1.01
  -6   9  -2   13.03    1.05
  -6   9  -3    2.86    0.49
  -6   9  -3    3.90    0.53
   6  -9   3    3.74    0.56
   6  -9   4    5.96    0.68
  -6   9  -4    6.89    0.68
  -6   9  -4    5.78    0.61
  -6   9  -5    0.93    0.28
  -6   9  -5    1.56    0.39
  -6   9  -6    8.43    0.70
  -6   9  -6    6.72    0.58
  -6   9  -7    9.92    0.73
  -6   9  -7    7.13    0.59
  -6   8  12   16.63    1.01
  -6   8  12   14.85    0.96
  -6   8  11    0.67    0.31
  -6   8  11    0.20    0.42
  -6   8  11    0.57    0.26
  -6   8  10   21.11    1.34
  -6   8  10   16.13    1.23
  -6   8   9    5.16    0.61
  -6   8   8    2.73    0.55
   6  -8  -8    2.68    0.43
  -6   8   8    2.43    0.39
  -6   8   8    2.86    0.52
  -6   8   7   21.90    1.53
  -6   8   7   20.82    1.40
   6  -8  -7   19.21    1.44
  -6   8   7   19.64    1.44
  -6   8   6   15.11    1.23
   6  -8  -6   14.64    1.23
  -6   8   6   14.04    1.14
  -6   8   5   11.19    1.06
   6  -8  -5   11.25    1.08
  -6   8   5   12.67    1.07
  -6   8   4    0.68    0.45
   6  -8  -4    1.58    0.52
  -6   8   4    1.59    0.47
  -6   8   3    0.33    0.38
   6  -8  -3    0.18    0.42
  -6   8   3    0.21    0.42
  -6   8   2   42.42    2.70
   6  -8  -2   44.69    2.75
   6  -8  -1   15.69    1.37
  -6   8   1   13.38    1.25
   6  -8  -1   13.54    1.16
   6  -8   0   49.20    3.15
  -6   8   0   55.79    3.13
   6  -8   0   46.64    2.92
   6  -8   1    9.11    1.01
   6  -8   1    7.59    0.82
   6  -8   2    0.19    0.44
  -6   8  -2   -0.05    0.43
   6  -8   2    0.04    0.33
   6  -8   3    0.30    0.39
  -6   8  -3    0.60    0.41
   6  -8   3    0.62    0.31
   6  -8   4   14.42    1.24
  -6   8  -4   13.26    1.14
  -6   8  -4   13.16    1.04
   6  -8   5   40.08    2.59
  -6   8  -5   44.35    2.55
  -6   8  -5   42.00    2.49
   6  -8   6    8.60    0.89
  -6   8  -6   10.86    0.90
  -6   8  -6   11.81    1.00
  -6   8  -6   10.74    0.92
  -6   8  -7   67.60    3.71
  -6   8  -8    0.03    0.32
  -6   8  -9   -0.19    0.31
  -6   8  -9   -0.03    0.30
  -6   8 -10   29.65    1.73
  -6   8 -10   29.03    1.74
  -6   8 -11    7.46    0.61
   6  -7 -14    1.51    0.34
  -6   7  13   19.56    1.28
  -6   7  12    9.91    0.81
  -6   7  12    8.52    0.78
  -6   7  11   -0.20    0.38
  -6   7  11    0.43    0.37
  -6   7  10    2.22    0.53
  -6   7  10    1.33    0.48
  -6   7   9    6.96    0.86
  -6   7   9    6.69    0.80
   6  -7  -8   57.20    3.20
  -6   7   8   52.45    3.07
   6  -7  -7    9.00    0.98
  -6   7   7    9.95    0.93
  -6   7   6   11.58    1.19
   6  -7  -6    9.74    1.09
  -6   7   6   13.16    1.10
  -6   7   5   16.29    1.38
   6  -7  -5   12.76    1.30
  -6   7   5   15.23    1.28
  -6   7   4    6.76    0.92
   6  -7  -4    6.75    0.93
  -6   7   4    6.60    0.88
   6  -7  -4    5.57    0.84
  -6   7   3   57.20    3.41
   6  -7  -3   53.68    3.49
  -6   7   3   59.35    3.44
   6  -7  -3   52.22    3.34
  -6   7   2   11.43    1.19
  -6   7   2   14.61    1.33
   6  -7  -2   13.76    1.25
  -6   7   1  107.63    6.11
   6  -7  -1  112.15    6.34
  -6   7   1  120.77    6.31
   6  -7  -1  113.14    6.17
  -6   7   0   11.59    1.08
   6  -7   0   12.30    1.28
  -6   7   0   10.91    1.20
   6  -7   0   12.06    1.15
  -6   7  -1   67.14    4.02
   6  -7   1   77.25    4.40
   6  -7   1   76.13    4.20
   6  -7   2    0.87    0.54
  -6   7  -2    1.17    0.54
   6  -7   2    0.28    0.40
   6  -7   3   19.09    1.61
  -6   7  -3   19.82    1.58
  -6   7  -3   16.09    1.34
   6  -7   3   18.27    1.43
   6  -7   4   49.56    2.97
  -6   7  -4   47.44    2.88
  -6   7  -4   41.43    2.71
   6  -7   4   44.78    2.76
   6  -7   5   27.51    2.01
  -6   7  -5   32.23    2.03
  -6   7  -5   26.24    1.89
   6  -7   5   27.92    1.89
   6  -7   6   11.42    1.07
  -6   7  -6   11.16    1.05
  -6   7  -6   10.90    1.05
   6  -7   6   11.12    0.99
  -6   7  -7   -0.08    0.32
   6  -7   7    0.33    0.35
  -6   7  -7    0.05    0.41
   6  -7   7    0.33    0.33
  -6   7  -8   16.33    1.27
   6  -7   8   14.23    1.11
  -6   7  -9   43.48    2.57
  -6   7  -9   41.16    2.56
  -6   7 -10   40.39    2.41
  -6   7 -10   40.70    2.45
  -6   7 -11   10.44    0.89
  -6   7 -11   11.36    0.95
  -6   7 -12    2.27    0.36
  -6   7 -12    3.08    0.47
  -6   7 -13    6.76    0.60
   6  -6 -15    0.93    0.30
  -6   6  15    1.55    0.31
  -6   6  14   54.88    3.05
  -6   6  14   59.87    3.16
  -6   6  13   -0.20    0.31
  -6   6  13   -0.15    0.35
  -6   6  12   16.51    1.20
   6  -6 -12   12.21    1.08
  -6   6  11   15.03    1.26
  -6   6  10    3.62    0.67
  -6   6   9   16.04    1.44
  -6   6   8    1.58    0.64
  -6   6   8    1.08    0.42
   6  -6  -8    2.06    0.47
   6  -6  -7  160.77    8.42
  -6   6   7  156.70    8.29
   6  -6  -6    6.24    0.90
  -6   6   6    6.27    0.84
  -6   6   5    8.48    1.07
   6  -6  -5    8.25    2.10
  -6   6   5    7.42    0.96
   6  -6  -5    7.55    0.99
  -6   6   5    9.18    2.34
   6  -6  -5    8.30    1.03
  -6   6   4   35.51    4.47
  -6   6   4   35.96    2.51
   6  -6  -4   32.40    2.47
   6  -6  -4   37.39    4.44
  -6   6   4   36.13    2.45
   6  -6  -4   36.73    2.43
  -6   6   4   26.81    3.53
  -6   6   3    4.57    0.81
   6  -6  -3    1.78    1.12
   6  -6  -3    3.45    0.75
  -6   6   3    2.98    0.74
   6  -6  -3    3.82    0.74
  -6   6   3    2.71    1.61
  -6   6   3    1.40    1.05
   6  -6  -2   17.53    2.97
  -6   6   2   19.58    1.63
  -6   6   2   16.96    3.29
  -6   6   2   19.54    1.68
   6  -6  -2   17.91    1.57
  -6   6   2   15.78    2.64
  -6   6   1    5.83    0.89
  -6   6   1    9.00    1.14
   6  -6  -1    8.06    0.98
   6  -6  -1   10.23    2.15
  -6   6   1    9.90    2.14
  -6   6   0    0.70    0.52
   6  -6   0    0.86    0.60
  -6   6   0    0.53    0.60
   6  -6   0    0.65    0.56
  -6   6  -1    0.41    0.43
   6  -6   1    1.17    0.59
   6  -6   1    0.51    0.47
  -6   6  -2   -0.42    0.43
  -6   6  -2    0.16    0.40
   6  -6   2   -0.38    0.53
  -6   6  -2   -0.15    0.57
   6  -6   2   -0.38    0.47
  -6   6  -2   -0.29    1.07
  -6   6  -3   22.91    1.72
  -6   6  -3   21.11    1.83
   6  -6   3   22.73    1.75
  -6   6  -3   22.65    3.04
   6  -6   3   25.36    1.90
  -6   6  -4    0.64    0.50
   6  -6   4    1.67    0.58
  -6   6  -4    0.89    0.55
   6  -6   4    1.92    1.19
  -6   6  -4    0.71    1.16
   6  -6   4    0.84    0.50
  -6   6  -4   -1.08    1.08
  -6   6  -5    6.01    0.90
   6  -6   5    8.25    1.02
  -6   6  -5   10.01    1.04
   6  -6   5    9.19    0.98
   6  -6   6    6.06    0.77
  -6   6  -6    6.19    0.88
   6  -6   6    5.50    0.83
  -6   6  -6    6.83    0.86
   6  -6   6    7.19    0.86
   6  -6   7    2.28    0.49
  -6   6  -7    1.68    0.60
   6  -6   7    1.86    0.52
  -6   6  -7    2.23    0.54
   6  -6   7    1.89    0.49
  -6   6  -8   10.71    1.11
  -6   6  -8    9.10    0.90
   6  -6   8   10.25    0.96
   6  -6   8    8.15    0.87
   6  -6   9   42.36    2.58
   6  -6  10   10.33    0.94
   6  -6  11    3.78    0.54
  -6   6 -11    4.85    0.67
  -6   6 -11    3.98    0.70
  -6   6 -12    2.15    0.46
  -6   6 -12    3.43    0.60
   6  -6  12    2.69    0.43
  -6   6 -15   25.79    1.52
  -6   5  16    3.40    0.40
  -6   5  15    5.94    0.63
  -6   5  14    6.68    0.65
  -6   5  14    7.19    0.75
  -6   5  13    0.23    0.33
   6  -5 -13   -0.13    0.30
  -6   5  13    0.59    0.42
  -6   5  12   16.46    1.29
   6  -5 -12   14.14    1.22
  -6   5  12   16.52    1.35
  -6   5  11   35.79    2.42
  -6   5  11   36.86    2.46
  -6   5  10   47.36    3.02
  -6   5   9    0.62    0.59
  -6   5   8   85.89    4.61
   6  -5  -8   74.19    4.34
  -6   5   8   71.83    4.24
  -6   5   7    2.84    0.78
   6  -5  -7    1.74    0.57
  -6   5   7    2.23    0.57
   6  -5  -7    2.23    1.04
   6  -5  -7    2.16    1.29
   6  -5  -6    1.12    0.58
  -6   5   6    1.62    0.59
   6  -5  -6    0.61    0.83
   6  -5  -6    1.64    0.60
  -6   5   6    2.47    0.96
  -6   5   5    3.66    1.25
   6  -5  -5    2.28    0.65
   6  -5  -5    4.75    1.70
  -6   5   5    3.44    0.71
   6  -5  -5    1.92    1.15
   6  -5  -5    3.32    0.71
  -6   5   4   34.99    2.59
   6  -5  -4   37.95    2.59
   6  -5  -4   41.36    4.60
  -6   5   4   38.95    2.56
   6  -5  -4   36.70    2.48
  -6   5   4   31.81    3.82
  -6   5   3   26.47    2.10
  -6   5   3   33.42    4.32
   6  -5  -3   26.93    2.08
   6  -5  -3   28.89    3.81
  -6   5   3   25.09    2.04
   6  -5  -3   25.63    1.97
  -6   5   3   25.99    3.35
  -6   5   2   -0.28    0.83
  -6   5   2    0.08    0.56
   6  -5  -2    0.08    0.57
   6  -5  -2    0.70    1.14
  -6   5   2    0.15    0.52
   6  -5  -2    0.66    0.47
  -6   5   2    0.78    1.33
  -6   5   1   -0.29    1.15
  -6   5   1    1.91    1.43
  -6   5   1    0.07    0.52
   6  -5  -1   -0.34    1.21
  -6   5   1   -0.23    0.52
   6  -5  -1    0.07    0.46
  -6   5   0   17.23    1.59
   6  -5   0   19.05    1.67
   6  -5   0   15.77    2.69
  -6   5   0   18.38    3.27
  -6   5   0   19.19    1.68
   6  -5   0   18.91    1.57
  -6   5  -1    4.73    0.77
   6  -5   1    4.63    0.88
  -6   5  -1    5.53    2.06
   6  -5   1    4.72    0.81
  -6   5  -2   69.54    4.46
  -6   5  -2   78.29    4.44
   6  -5   2   83.30    4.71
   6  -5   2   85.04    4.58
  -6   5  -2   75.15    7.01
  -6   5  -2   86.52    6.67
  -6   5  -3    4.54    1.71
  -6   5  -3    7.80    0.92
  -6   5  -3   10.30    1.03
   6  -5   3    9.72    1.13
  -6   5  -3    6.46    2.04
   6  -5   3    9.73    1.05
  -6   5  -3    7.73    1.10
   6  -5   3    9.64    1.04
  -6   5  -4   51.30    3.08
   6  -5   4   51.84    3.20
  -6   5  -4   45.08    3.15
   6  -5   4   50.05    3.08
  -6   5  -4   45.54    4.60
   6  -5   4   46.64    3.03
  -6   5  -5    1.91    1.20
   6  -5   5    1.33    0.53
  -6   5  -5    2.03    0.64
   6  -5   5    1.62    0.57
   6  -5   5    2.77    1.46
  -6   5  -5    2.07    0.66
   6  -5   5    2.02    0.59
   6  -5   6    1.96    0.62
  -6   5  -6    3.67    0.75
  -6   5  -6    3.96    0.73
   6  -5   6    3.65    0.70
   6  -5   6    1.48    1.11
   6  -5   6    3.19    0.66
  -6   5  -6    3.95    1.40
   6  -5   7   32.90    2.30
  -6   5  -7   33.44    2.39
  -6   5  -7   35.69    2.36
   6  -5   7   28.39    3.66
   6  -5   7   36.71    2.36
  -6   5  -7   28.40    3.46
   6  -5   7   35.96    2.31
  -6   5  -8   56.19    3.48
  -6   5  -8   57.34    3.39
   6  -5   8   57.71    3.41
   6  -5   8   52.61    3.32
   6  -5   8   57.87    3.38
  -6   5  -9    8.72    1.06
  -6   5  -9    7.35    0.81
   6  -5   9    7.60    0.91
   6  -5   9    7.56    0.86
  -6   5 -10   10.22    1.23
   6  -5  10   12.67    1.15
   6  -5  10   13.09    1.12
   6  -5  11    0.56    0.38
  -6   5 -11    0.83    0.60
   6  -5  11    0.26    0.38
   6  -5  12   27.67    1.81
   6  -5  12   24.60    1.69
  -6   5 -13   11.30    0.99
  -6   5 -13   13.34    1.01
   6  -5  13   14.74    1.10
  -6   5 -14   45.27    2.66
   6  -5  14   46.60    2.71
  -6   5 -15   20.64    1.36
   6  -5  15   21.81    1.38
  -6   5 -16    2.20    0.37
   6  -4 -17    4.45    0.48
   6  -4 -16    5.65    0.60
   6  -4 -16    6.75    0.70
  -6   4  16    7.50    0.64
  -6   4  15    1.09    0.39
  -6   4  14    4.55    0.56
  -6   4  14    6.06    0.72
  -6   4  13    3.76    0.59
   6  -4 -13    4.58    0.60
  -6   4  13    5.18    0.74
  -6   4  12   69.96    3.85
   6  -4 -12   60.14    3.77
  -6   4  12   68.98    3.91
  -6   4  11    5.94    0.85
  -6   4  11    5.62    0.90
  -6   4  10   23.53    1.85
  -6   4   9    0.37    0.59
   6  -4  -9    1.01    0.92
  -6   4   8    0.55    0.62
   6  -4  -8    1.40    1.03
   6  -4  -8    0.86    0.45
   6  -4  -8   -0.40    1.09
  -6   4   7   28.25    2.12
   6  -4  -7   23.84    1.86
   6  -4  -7   23.91    3.64
  -6   4   7   24.58    1.82
   6  -4  -7   22.17    3.09
  -6   4   6   15.53    2.46
  -6   4   6   17.94    1.63
   6  -4  -6   16.79    1.46
   6  -4  -6   18.59    2.99
  -6   4   6   14.38    1.38
   6  -4  -6   15.01    2.64
   6  -4  -6   15.00    1.42
  -6   4   5   57.06    3.68
   6  -4  -5   59.87    3.57
  -6   4   5   51.89    3.45
   6  -4  -5   58.41    3.50
   6  -4  -5   60.59    5.58
  -6   4   5   53.40    4.88
  -6   4   4    0.51    0.92
   6  -4  -4    1.67    0.63
   6  -4  -4    1.04    1.13
  -6   4   4    0.48    0.54
   6  -4  -4    2.83    1.34
   6  -4  -4    1.09    0.55
  -6   4   3    8.26    1.99
  -6   4   3    9.30    1.21
   6  -4  -3   11.91    1.24
   6  -4  -3   12.47    2.42
  -6   4   3   11.29    1.21
   6  -4  -3   10.55    1.11
  -6   4   2   10.40    2.01
  -6   4   2   11.34    1.26
   6  -4  -2   12.23    1.25
   6  -4  -2   12.45    2.41
  -6   4   2   10.00    1.17
   6  -4  -2   12.45    1.18
  -6   4   2    9.58    2.41
  -6   4   1   33.44    2.40
  -6   4   1   36.61    4.37
   6  -4  -1   38.28    4.16
  -6   4   1   32.26    2.38
   6  -4  -1   32.02    2.26
  -6   4   1   36.19    3.79
  -6   4   0   12.62    2.63
  -6   4   0   14.09    2.34
  -6   4   0   14.80    1.40
   6  -4   0   15.76    1.43
   6  -4   0   12.40    2.47
  -6   4   0   13.50    1.39
   6  -4   0   13.79    1.29
  -6   4  -1  117.49    6.75
  -6   4  -1  113.97    6.51
   6  -4   1  134.05    6.84
  -6   4  -1  124.90    6.84
  -6   4  -1  130.70    9.44
   6  -4   1  126.01    6.71
  -6   4  -1  125.85    8.69
   6  -4   1  127.59    6.73
  -6   4  -2  121.46    6.97
  -6   4  -2  124.42    6.84
   6  -4   2  142.24    7.12
  -6   4  -2  117.35    9.30
   6  -4   2  138.42    7.02
   6  -4   2  124.67    6.95
  -6   4  -3   18.06    2.77
  -6   4  -3   19.49    1.62
  -6   4  -3   19.65    1.56
   6  -4   3   23.21    1.74
   6  -4   3   22.47    1.69
   6  -4   3   22.60    1.66
  -6   4  -3   17.04    1.65
  -6   4  -3   22.59    3.30
  -6   4  -4   10.19    2.04
  -6   4  -4   11.52    1.14
  -6   4  -4   12.10    1.19
   6  -4   4   13.32    1.27
  -6   4  -4   11.35    1.29
  -6   4  -4   11.58    2.49
   6  -4   4   12.87    1.21
   6  -4   4   14.05    1.27
  -6   4  -5   29.02    3.80
  -6   4  -5   29.97    2.13
   6  -4   5   32.03    2.21
  -6   4  -5   29.77    2.21
   6  -4   5   29.38    3.55
   6  -4   5   29.92    2.12
  -6   4  -5   32.39    3.63
   6  -4   5   29.37    2.11
  -6   4  -6   75.84    4.34
   6  -4   6   73.86    4.31
  -6   4  -6   65.45    5.79
  -6   4  -6   69.76    4.35
  -6   4  -6   71.84    6.45
   6  -4   6   72.01    6.22
   6  -4   6   76.62    4.33
   6  -4   6   78.06    4.33
  -6   4  -7   20.19    2.83
   6  -4   7   23.52    1.73
  -6   4  -7   23.54    1.80
  -6   4  -7   21.13    1.74
   6  -4   7   20.71    3.02
   6  -4   7   22.06    1.72
   6  -4   7   20.41    1.68
  -6   4  -8   65.61    3.73
   6  -4   8   62.66    3.58
  -6   4  -8   54.49    3.55
   6  -4   8   58.73    3.59
   6  -4   8   60.78    3.58
  -6   4  -9   13.68    1.37
  -6   4  -9   12.74    1.23
   6  -4   9   13.19    1.28
   6  -4   9   14.36    1.28
  -6   4 -10   50.11    3.08
   6  -4  10   41.82    2.87
   6  -4  10   46.75    2.88
  -6   4 -11  125.25    6.39
  -6   4 -11  105.87    6.06
   6  -4  11  113.76    6.20
   6  -4  11  112.49    6.14
  -6   4 -12   56.00    3.33
   6  -4  12   57.82    3.42
   6  -4  12   56.06    3.35
  -6   4 -13   25.78    1.89
  -6   4 -13   21.92    1.67
   6  -4  13   25.55    1.75
   6  -4  13   22.84    1.68
   6  -4  14   20.03    1.48
   6  -4  14   18.42    1.38
  -6   4 -15   33.04    2.02
   6  -4  15   27.52    1.89
   6  -4  15   29.11    1.83
  -6   4 -16    0.74    0.37
  -6   4 -16    0.76    0.36
   6  -4  16    0.67    0.31
  -6   4 -17    9.29    0.71
  -6   4 -17    7.85    0.67
   6  -4  17    7.97    0.65
   6  -3 -17    7.02    0.61
   6  -3 -17    6.73    0.64
   6  -3 -16    0.44    0.32
   6  -3 -16    0.89    0.39
  -6   3  16    0.45    0.28
   6  -3 -15    5.29    0.77
  -6   3  15    4.12    0.58
  -6   3  14    0.14    0.38
  -6   3  13    0.09    0.36
   6  -3 -13    0.17    0.32
  -6   3  13    0.11    0.44
  -6   3  12   41.26    2.62
   6  -3 -12   39.54    2.61
  -6   3  12   43.37    2.72
  -6   3  11    5.12    0.83
  -6   3  10    4.26    0.80
  -6   3   9   13.01    1.36
   6  -3  -9   10.16    2.56
  -6   3   8   12.63    1.37
   6  -3  -8   12.32    2.36
   6  -3  -8   11.14    2.61
   6  -3  -8   13.28    1.17
  -6   3   7   39.15    2.76
   6  -3  -7   45.35    4.69
  -6   3   7   34.92    2.49
   6  -3  -7   41.09    2.57
   6  -3  -7   42.20    4.10
  -6   3   6   18.18    2.65
  -6   3   6   22.66    1.88
  -6   3   6   19.08    1.62
   6  -3  -6   21.83    1.69
   6  -3  -6   22.28    3.32
   6  -3  -6   16.61    2.67
  -6   3   5  102.97    5.51
   6  -3  -5   94.18    7.52
  -6   3   5   87.61    5.20
   6  -3  -5   95.97    5.27
   6  -3  -5   86.97    7.18
  -6   3   5   83.61    6.61
  -6   3   4    1.36    0.94
  -6   3   4    0.15    0.58
   6  -3  -4   -0.33    0.50
   6  -3  -4    0.29    0.84
   6  -3  -4    0.30    0.43
   6  -3  -3   23.37    1.80
   6  -3  -3   20.36    3.10
   6  -3  -3   23.03    1.72
  -6   3   3   25.39    3.01
   6  -3  -2   18.48    1.56
   6  -3  -2   19.35    2.82
   6  -3  -2   16.50    2.66
   6  -3  -2   16.83    1.43
  -6   3   2   20.59    2.53
   6  -3  -1   12.74    2.34
   6  -3  -1   15.22    1.32
  -6   3   1   19.35    2.96
  -6   3   0  151.44    9.88
   6  -3   0  135.23    7.15
   6  -3   0  149.60    9.55
   6  -3   0  126.50    7.14
   6  -3   1   89.52    4.94
  -6   3  -1   86.77    7.01
   6  -3   1   87.90    4.86
   6  -3   1   82.62    4.84
   6  -3   2   29.79    2.09
  -6   3  -2   35.39    3.89
   6  -3   2   29.42    2.05
   6  -3   2   29.02    2.06
   6  -3   3   24.17    1.77
   6  -3   3   24.10    3.05
   6  -3   3   21.50    1.70
  -6   3  -3   26.51    3.39
   6  -3   3   21.01    1.67
   6  -3   4  105.87    5.82
   6  -3   4   93.20    7.56
   6  -3   4  105.38    5.80
  -6   3  -4  106.05    7.43
  -6   3  -4  103.31    7.90
   6  -3   4  108.38    5.83
  -6   3  -5   35.29    3.99
   6  -3   5   36.86    3.91
   6  -3   5   32.20    2.29
  -6   3  -5   36.54    3.62
   6  -3   5   34.92    2.32
   6  -3   5   35.34    2.34
   6  -3   6   87.55    4.82
  -6   3  -6   80.92    6.79
   6  -3   6   82.87    6.57
   6  -3   6   85.88    4.84
  -6   3  -6   76.52    6.25
   6  -3   6   84.71    4.81
   6  -3   7  202.49   12.74
   6  -3   7  207.77   10.70
  -6   3  -7  195.28   12.45
  -6   3  -7  186.49   10.67
   6  -3   7  222.18   10.70
   6  -3   7  208.55   10.69
  -6   3  -8    7.35    1.62
   6  -3   8    6.63    0.89
   6  -3   8    6.91    0.82
  -6   3  -8    5.21    0.84
   6  -3   8    7.07    1.57
   6  -3   8    5.96    0.86
  -6   3  -9   53.72    3.30
  -6   3  -9   46.15    3.14
   6  -3   9   53.96    3.11
   6  -3   9   51.96    3.23
  -6   3  -9   47.46    4.49
   6  -3   9   51.77    3.18
  -6   3 -10    7.25    1.06
   6  -3  10    7.68    0.99
  -6   3 -10    7.73    0.89
   6  -3  10    9.46    1.03
   6  -3  11   84.92    7.06
  -6   3 -11   95.01    5.47
   6  -3  11  105.85    5.63
   6  -3  11  103.43    5.57
  -6   3 -12   26.84    1.93
   6  -3  12   27.55    2.00
   6  -3  12   25.99    1.95
  -6   3 -13   70.41    4.25
  -6   3 -13   69.96    4.10
   6  -3  13   72.15    4.19
   6  -3  13   71.80    4.13
  -6   3 -14    8.60    1.04
  -6   3 -14    8.26    0.96
   6  -3  14    7.56    0.94
   6  -3  14    7.49    0.90
  -6   3 -15    0.10    0.50
   6  -3  15    1.11    0.48
  -6   3 -15    1.57    0.57
   6  -3  15    0.28    0.42
  -6   3 -16   14.49    1.22
   6  -3  16   14.00    1.18
   6  -3  16   13.52    1.13
  -6   3 -17    9.10    0.87
   6  -3  17   12.11    0.96
   6  -3  17   11.19    0.89
   6  -3  18    5.65    0.58
  -6   3 -19   15.02    0.98
   6  -2 -17    0.51    0.27
   6  -2 -17    0.37    0.29
   6  -2 -16    6.48    0.72
   6  -2 -16    7.90    0.84
  -6   2  16    5.69    0.59
   6  -2 -15   18.58    1.51
  -6   2  15   16.76    1.28
  -6   2  14    1.71    0.49
   6  -2 -13   49.64    2.98
   6  -2 -13   44.99    3.02
  -6   2  12    8.68    0.94
   6  -2 -12    9.27    1.00
  -6   2  12    8.33    1.01
  -6   2  11   35.14    2.32
   6  -2 -11   30.46    2.30
  -6   2  10   14.83    1.42
   6  -2 -10   10.64    2.48
  -6   2   9   48.96    3.16
   6  -2  -9   41.93    5.12
  -6   2   8   64.23    3.76
   6  -2  -8   56.25    3.36
  -6   2   7   54.61    3.28
   6  -2  -7   48.66    2.96
   6  -2  -7   51.20    4.94
   6  -2  -7   45.05    2.99
   6  -2  -7   41.61    4.25
   6  -2  -6   97.98    5.26
  -6   2   6   99.18    5.49
   6  -2  -6   92.23    7.36
   6  -2  -6   89.03    5.23
   6  -2  -6   92.31    6.93
  -6   2   6   92.30    6.59
  -6   2   5   -0.07    0.52
   6  -2  -5    0.59    0.42
   6  -2  -5   -0.29    0.91
   6  -2  -5   -0.25    0.77
   6  -2  -5    0.29    0.39
   6  -2  -4    4.64    0.71
   6  -2  -4    4.54    1.48
   6  -2  -4    2.78    1.32
   6  -2  -4    3.95    0.67
   6  -2  -3   39.98    2.53
   6  -2  -3   35.22    3.84
   6  -2  -2   28.10    1.98
   6  -2  -2   26.94    3.22
   6  -2  -1   22.99    1.72
   6  -2  -1   25.11    3.01
   6  -2  -1   27.11    3.08
   6  -2  -1   21.96    1.69
  -6   2   0   44.23    4.25
   6  -2   0   36.19    2.39
  -6   2  -1   -0.26    0.90
   6  -2   1    0.37    0.36
   6  -2   1    0.56    0.43
   6  -2   1   -0.49    0.97
   6  -2   2    2.21    0.55
   6  -2   2    2.23    0.56
  -6   2  -2    2.56    1.30
   6  -2   2    1.20    1.00
   6  -2   2    1.90    0.52
   6  -2   3   76.99    4.32
   6  -2   3   80.75    6.07
  -6   2  -3   75.31    6.03
   6  -2   3   74.90    4.30
   6  -2   3   74.80    4.32
   6  -2   4   60.02    3.52
   6  -2   4   64.22    5.24
   6  -2   4   59.85    3.53
  -6   2  -4   55.61    5.03
   6  -2   4   60.55    3.57
  -6   2  -5  104.69    8.15
   6  -2   5  122.52    6.42
   6  -2   5  110.69    8.10
   6  -2   5  121.90    6.46
   6  -2   5  118.11    6.43
   6  -2   6    6.30    0.82
   6  -2   6    7.56    0.84
  -6   2  -6    6.63    1.70
   6  -2   6    5.27    1.48
   6  -2   6    5.78    0.81
   6  -2   7   56.98    3.25
  -6   2  -7   49.42    4.81
   6  -2   7   53.84    4.73
   6  -2   7   54.55    3.30
   6  -2   7   49.59    3.23
   6  -2   8    1.86    0.59
  -6   2  -8    2.11    1.05
   6  -2   8    2.59    0.54
   6  -2   8    1.65    0.98
   6  -2   8    2.13    0.60
  -6   2  -9   27.00    2.15
   6  -2   9   33.25    2.26
   6  -2   9   34.06    3.48
  -6   2  -9   29.44    3.21
   6  -2   9   33.99    2.15
   6  -2   9   34.04    2.25
   6  -2  10   79.96    4.58
   6  -2  10   76.45    4.50
   6  -2  11   25.86    3.21
   6  -2  11   32.40    2.18
  -6   2 -11   26.78    1.99
   6  -2  11   26.94    2.03
   6  -2  12   32.35    3.73
  -6   2 -12   39.07    2.69
   6  -2  12   37.35    2.59
  -6   2 -12   38.94    2.54
   6  -2  12   39.12    2.58
   6  -2  13    7.00    0.97
  -6   2 -13    9.29    1.14
   6  -2  13    9.98    1.09
  -6   2 -13    9.73    1.06
   6  -2  14    0.96    0.54
  -6   2 -14    1.61    0.67
  -6   2 -14    2.21    0.64
   6  -2  14    1.72    0.60
  -6   2 -15   47.16    3.00
  -6   2 -15   49.24    2.98
   6  -2  15   48.42    3.01
   6  -2  15   42.66    2.88
  -6   2 -16   24.44    1.83
  -6   2 -16   25.64    1.88
   6  -2  16   24.62    1.86
   6  -2  16   27.89    1.87
  -6   2 -17   14.32    1.28
   6  -2  17   14.04    1.25
   6  -2  17   17.15    1.28
  -6   2 -18   11.82    1.01
   6  -2  18   10.86    0.95
   6  -2  18    9.38    0.87
   6  -2  19    2.42    0.37
   6  -2  19    2.45    0.42
  -6   2 -20    0.34    0.23
   6  -1 -18    0.44    0.20
   6  -1 -17    0.74    0.32
   6  -1 -17    0.67    0.34
   6  -1 -16   14.37    1.21
   6  -1 -16   16.01    1.28
   6  -1 -15   22.01    1.68
  -6   1  15   19.17    1.38
   6  -1 -14   17.14    1.63
   6  -1 -14   16.96    1.43
  -6   1  14   16.72    1.33
   6  -1 -13   11.40    1.04
   6  -1 -13   11.68    1.19
  -6   1  13   12.37    1.14
   6  -1 -12    0.64    0.45
  -6   1  12    0.24    0.45
   6  -1 -12   -0.12    0.57
  -6   1  11    5.53    0.81
   6  -1 -11    5.88    1.96
   6  -1 -11    5.23    0.86
  -6   1  11    6.12    0.85
   6  -1 -11    6.78    0.94
  -6   1  10    3.91    0.75
   6  -1 -10    1.87    1.29
   6  -1 -10    3.43    0.78
   6  -1 -10    3.69    0.78
  -6   1   9    0.58    0.58
   6  -1  -9    1.13    1.16
   6  -1  -9    0.51    0.55
  -6   1   8   61.24    3.70
   6  -1  -8   61.58    6.00
   6  -1  -8   55.28    3.50
  -6   1   7   13.72    1.37
   6  -1  -7   11.05    2.60
   6  -1  -7   12.63    1.97
   6  -1  -7   13.39    1.24
   6  -1  -7   12.73    1.13
   6  -1  -6    5.93    0.75
   6  -1  -6    6.59    0.83
   6  -1  -6    4.77    1.34
   6  -1  -5    0.91    0.50
   6  -1  -5    0.53    0.37
   6  -1  -5   -0.22    0.72
   6  -1  -5   -0.11    0.43
   6  -1  -4   44.15    2.62
   6  -1  -4   39.26    2.58
   6  -1  -4   38.62    3.84
   6  -1  -4   41.71    2.63
   6  -1  -3  141.35    7.02
   6  -1  -3  120.89    6.93
   6  -1  -3  132.61    8.76
   6  -1  -3  134.41    7.03
   6  -1  -2    2.88    0.61
   6  -1  -2    3.38    0.59
   6  -1  -2    3.31    1.26
   6  -1  -2    3.70    0.54
   6  -1  -1   38.82    2.45
   6  -1  -1   38.83    2.42
   6  -1  -1   40.37    3.84
   6  -1   0   12.89    1.09
  -6   1   0   14.33    2.15
   6  -1   1    4.80    0.69
   6  -1   1    4.11    1.23
   6  -1   1    5.02    0.67
  -6   1  -1    5.06    1.37
   6  -1   2  319.38   15.48
  -6   1  -2  321.92   17.36
   6  -1   2  287.86   17.13
   6  -1   2  295.88   15.40
   6  -1   3  114.78    6.14
   6  -1   3  103.79    6.65
   6  -1   3  114.19    7.77
  -6   1  -3  118.93    7.80
   6  -1   3  119.48    6.17
   6  -1   4   77.75    4.37
   6  -1   4   76.08    5.89
  -6   1  -4   77.20    5.89
   6  -1   4   80.16    4.41
   6  -1   5    2.13    0.49
   6  -1   5    1.41    0.44
   6  -1   5    2.59    1.07
  -6   1  -5    3.38    1.28
   6  -1   6    3.86    0.66
   6  -1   6    3.72    0.61
   6  -1   6    5.00    1.43
  -6   1  -6    4.42    1.33
   6  -1   7   74.69    4.12
   6  -1   7   72.58    4.20
   6  -1   7   65.71    5.51
   6  -1   7   73.37    4.18
   6  -1   8    0.89    0.49
   6  -1   8    1.33    0.42
   6  -1   8    0.44    0.68
   6  -1   8    0.56    0.45
   6  -1   9   26.42    1.90
   6  -1   9   21.91    2.70
   6  -1   9   25.56    1.73
   6  -1   9   22.99    1.80
   6  -1  10  196.12    9.87
   6  -1  10  192.92    9.82
   6  -1  11   40.39    4.17
   6  -1  11   40.29    2.78
   6  -1  11   44.85    2.79
   6  -1  12    8.72    1.87
   6  -1  12   10.34    1.15
   6  -1  12   10.03    1.10
   6  -1  13    3.39    0.71
  -6   1 -13    2.63    0.76
   6  -1  13    1.88    1.15
   6  -1  13    2.22    0.63
  -6   1 -14  111.06    6.17
   6  -1  14  114.81    6.20
   6  -1  14  113.05    6.13
   6  -1  15    6.89    0.93
  -6   1 -15    6.28    0.91
  -6   1 -15    5.20    0.90
   6  -1  15    6.77    0.93
  -6   1 -16   46.04    2.98
  -6   1 -16   48.34    3.07
   6  -1  16   50.44    3.10
   6  -1  16   47.36    3.01
  -6   1 -17    1.30    0.60
   6  -1  17    0.79    0.51
  -6   1 -17    1.30    0.48
   6  -1  17    1.28    0.55
   6  -1  18    2.01    0.54
  -6   1 -18    2.23    0.61
   6  -1  18    3.02    0.59
   6  -1  19    0.11    0.34
   6  -1  19   -0.21    0.36
  -6   1 -19   -0.26    0.48
   6  -1  20    5.70    0.57
  -6   1 -20    5.15    0.63
   6  -1  20    4.90    0.52
  -6   1 -21   50.71    2.72
   6   0 -18    2.77    0.35
   6   0 -17    1.96    0.41
   6   0 -17    1.84    0.41
   6   0 -16   15.37    1.28
   6   0 -16   16.72    1.32
   6   0 -15   23.12    1.77
   6   0 -15   24.90    1.82
   6   0 -15   22.22    1.72
   6   0 -14    3.37    0.79
   6   0 -14    3.88    0.77
   6   0 -13    0.55    0.36
   6   0 -13    0.23    0.61
  -6   0  13    0.45    0.37
   6   0 -13    0.25    0.56
   6   0 -12    0.11    0.39
  -6   0  12   -0.28    0.49
   6   0 -12   -0.20    0.59
   6   0 -11   65.37    3.64
   6   0 -11   62.65    3.68
  -6   0  11   53.84    3.49
  -6   0  10   41.71    2.99
   6   0 -10   50.60    5.35
   6   0 -10   50.79    3.13
   6   0 -10   53.32    3.19
  -6   0   9    5.65    0.87
   6   0  -9    7.74    1.98
   6   0  -9    7.69    0.98
   6   0  -9    5.75    0.93
  -6   0   8    6.33    0.92
   6   0  -8    5.52    1.74
   6   0  -8    6.02    0.90
   6   0  -8    6.01    0.92
   6   0  -7    0.36    0.34
   6   0  -7   -0.67    1.15
   6   0  -7    0.75    0.67
   6   0  -7    0.50    0.59
   6   0  -6    3.62    0.58
   6   0  -6    6.21    1.73
   6   0  -6    3.53    1.05
   6   0  -6    3.53    0.63
   6   0  -6    4.55    0.78
   6   0  -5   24.28    1.77
   6   0  -5   25.35    1.73
   6   0  -5   25.82    2.76
   6   0  -5   25.12    1.85
   6   0  -5   26.30    1.89
   6   0  -4  245.78   11.97
   6   0  -4  224.21   11.96
   6   0  -4  237.15   13.60
   6   0  -4  228.96   12.04
   6   0  -4  240.47   12.08
   6   0  -3   79.13    4.35
   6   0  -3   78.33    4.36
   6   0  -3   72.22    5.63
   6   0  -3   79.59    4.46
   6   0  -2   41.83    2.45
   6   0  -2   38.64    2.41
   6   0  -2   34.08    3.46
   6   0  -1    9.00    0.88
   6   0  -1    7.45    1.49
  -6   0   0   -0.95    0.94
  -6   0  -1   33.60    3.18
   6   0   2  122.05    6.21
   6   0   2  103.96    6.59
  -6   0  -2  115.42    7.52
   6   0   2  128.98    7.85
   6   0   3   68.24    4.67
   6   0   3   77.28    5.53
  -6   0  -3   68.29    5.19
   6   0   3   73.32    4.02
   6   0   4   25.52    1.75
   6   0   4   25.97    2.50
   6   0   4   29.44    2.94
  -6   0  -4   24.44    2.74
   6   0   5    1.26    0.39
  -6   0  -5    0.20    0.70
   6   0   5    0.79    0.68
   6   0   5    0.64    0.38
  -6   0  -6   24.79    2.86
   6   0   6   27.18    1.89
   6   0   6   32.55    3.07
   6   0   6   26.86    1.82
   6   0   7   12.26    1.86
   6   0   7    9.54    1.00
   6   0   7   10.21    0.95
   6   0   8   47.41    3.93
   6   0   8   42.40    2.57
   6   0   8   40.37    2.64
   6   0   9    3.68    0.65
   6   0   9    3.03    0.52
   6   0  10   22.43    2.54
   6   0  10   21.04    1.66
   6   0  11   37.16    3.95
   6   0  11   37.82    2.51
   6   0  12    1.84    0.61
   6   0  12    1.10    0.98
   6   0  12    0.36    0.51
   6   0  13   13.80    2.36
   6   0  13   15.23    1.44
   6   0  13   14.76    1.40
   6   0  14   38.68    4.11
  -6   0 -14   38.91    2.68
   6   0  14   40.01    2.76
   6   0  14   40.43    2.71
  -6   0 -15   23.15    1.90
   6   0  15   26.81    3.25
   6   0  15   27.67    2.05
   6   0  15   24.69    1.94
  -6   0 -16   48.10    3.12
   6   0  16   57.31    3.36
   6   0  16   49.34    3.22
   6   0  17    0.32    0.52
  -6   0 -17    0.47    0.45
  -6   0 -17   -0.20    0.60
   6   0  17    0.34    0.60
  -6   0 -18   17.34    1.52
   6   0  18   18.95    1.52
   6   0  18   18.85    1.51
  -6   0 -19   19.51    1.52
   6   0  19   20.51    1.51
   6   0  19   19.09    1.45
  -6   0 -20   51.21    2.89
   6   0  20   49.85    2.85
   6   0  20   47.06    2.80
  -6   0 -21   17.36    1.17
   6   0  21   16.87    1.11
   6   0  21   14.80    1.06
   6   1 -18    7.05    0.60
   6   1 -17   10.89    0.93
   6   1 -17   11.73    0.93
   6   1 -16    1.50    0.46
   6   1 -15    3.15    0.61
   6   1 -15    4.35    0.83
   6   1 -14   19.16    1.59
   6   1 -14   20.21    1.61
   6   1 -13   17.19    1.35
   6   1 -13   21.67    1.75
   6   1 -13   17.61    1.64
   6   1 -12   71.77    4.32
   6   1 -12   79.05    4.65
   6   1 -12   81.12    4.57
   6   1 -11   30.88    2.15
   6   1 -11   34.41    2.33
   6   1 -10   66.45    6.52
   6   1 -10   83.76    4.55
   6   1 -10   77.22    4.58
  -6  -1  10   74.32    4.43
   6   1  -9   18.60    3.02
   6   1  -9   21.19    1.72
   6   1  -9   22.73    1.81
   6   1  -9   19.22    1.73
  -6  -1   8   10.85    1.13
   6   1  -8   11.39    2.29
   6   1  -8   10.50    1.17
   6   1  -8   12.77    1.27
   6   1  -7   25.68    3.43
   6   1  -7   24.86    1.97
   6   1  -7   29.59    2.10
   6   1  -6   56.38    4.97
   6   1  -6   47.41    3.05
   6   1  -6   47.97    3.08
   6   1  -6   51.85    4.13
   6   1  -6   48.87    3.07
   6   1  -5   65.14    3.60
   6   1  -5   67.86    5.63
   6   1  -5   61.09    3.64
   6   1  -5   61.15    3.76
   6   1  -5   64.69    4.87
   6   1  -5   65.76    3.78
   6   1  -4    0.57    0.49
   6   1  -4    0.49    0.32
   6   1  -4    1.48    0.38
   6   1  -4    0.55    0.74
   6   1  -4    0.66    0.36
   6   1  -4    0.88    0.53
   6   1  -3   38.86    2.54
   6   1  -3   38.81    2.40
   6   1  -3   46.41    3.75
   6   1  -2   25.07    2.81
   6   1  -2   30.14    1.89
   6   1  -1    9.11    0.87
   6   1  -1    9.06    1.56
   6   1   0   38.74    2.33
  -6  -1   0   40.97    3.33
   6   1   0   33.25    2.61
   6   1   0   44.48    3.65
  -6  -1  -1    6.85    1.28
   6   1   1    5.69    0.95
   6   1   2    8.41    0.82
   6   1   2    7.37    1.13
   6   1   2    9.45    1.58
  -6  -1  -2    9.31    1.50
   6   1   3   29.98    2.62
   6   1   3   31.60    1.97
   6   1   3   33.43    3.18
  -6  -1  -3   27.83    2.79
  -6  -1  -4   27.29    2.75
   6   1   4   29.71    1.94
   6   1   4   30.66    2.82
   6   1   5   71.06    3.95
  -6  -1  -5   67.39    5.07
   6   1   5   73.02    5.17
   6   1   5   73.22    5.32
   6   1   6   61.78    3.51
   6   1   6   62.77    4.79
   6   1   7  252.91   12.70
   6   1   7  244.54   12.77
   6   1   7  277.33   14.42
   6   1   7  248.48   12.76
   6   1   8  123.86    6.58
   6   1   8  129.01    6.72
   6   1   8  138.91    8.23
   6   1   8  119.61    6.67
   6   1   9    1.12    0.82
   6   1   9    0.12    0.41
   6   1   9    0.44    0.32
   6   1  10   19.00    2.56
   6   1  10   16.28    1.40
   6   1  10   14.08    1.93
   6   1  11   88.77    6.45
   6   1  11   75.10    4.49
   6   1  12  148.53    9.93
   6   1  12  147.08    7.92
   6   1  13   21.43    2.99
   6   1  13   26.37    1.95
   6   1  14   50.02    4.95
   6   1  14   57.94    3.53
   6   1  15    4.82    0.84
  -6  -1 -15    4.29    0.76
   6   1  15    4.23    1.44
   6   1  16    0.14    0.54
  -6  -1 -16   -0.28    0.47
  -6  -1 -17   27.54    1.98
   6   1  17   33.74    2.35
   6   1  17   35.14    2.31
  -6  -1 -18   29.67    2.21
   6   1  18   32.21    2.24
   6   1  18   31.30    2.18
  -6  -1 -19   48.46    3.03
   6   1  19   51.43    3.06
   6   1  19   48.01    2.99
   6   1  20    3.54    0.56
  -6  -1 -20    3.20    0.63
   6   1  20    3.08    0.56
   6   1  21   10.43    0.89
   6   1  21    9.76    0.84
   6   1  22    0.07    0.18
   6   1  22    0.23    0.19
   6   2 -17    0.40    0.28
   6   2 -16    1.29    0.46
   6   2 -16    2.18    0.44
   6   2 -16    2.03    0.60
   6   2 -15   14.56    1.29
   6   2 -15   19.71    1.46
   6   2 -15   18.66    1.52
   6   2 -14   12.01    1.27
   6   2 -14   11.69    1.17
   6   2 -14   15.03    1.33
   6   2 -14   15.47    1.47
   6   2 -13    0.61    0.37
   6   2 -13    0.29    0.57
   6   2 -13    0.28    0.53
   6   2 -13   -0.25    0.51
   6   2 -13    0.07    0.85
   6   2 -12    0.43    0.41
   6   2 -12    0.30    0.52
   6   2 -12    0.63    0.71
   6   2 -11   38.43    2.46
   6   2 -11   35.13    2.56
   6   2 -10   10.92    1.10
   6   2 -10   11.96    1.29
   6   2  -9    2.82    1.38
   6   2  -9    4.57    0.76
   6   2  -9    4.46    0.83
   6   2  -9    4.44    0.86
   6   2  -8   53.02    5.14
   6   2  -8   62.84    3.71
   6   2  -8   60.01    3.74
   6   2  -8   63.74    3.80
   6   2  -7    5.85    1.59
   6   2  -7    8.25    0.98
   6   2  -7    9.16    1.06
   6   2  -7    9.33    1.10
   6   2  -6   55.96    4.47
   6   2  -6   55.12    4.92
   6   2  -6   60.52    3.56
   6   2  -6   58.36    3.56
   6   2  -6   60.18    3.66
   6   2  -6   61.60    3.63
   6   2  -5   46.00    2.78
   6   2  -5   50.75    4.37
   6   2  -5   51.85    3.03
   6   2  -5   52.45    3.04
   6   2  -5   47.14    3.08
   6   2  -5   53.87    4.11
   6   2  -5   46.53    3.03
   6   2  -4    6.48    1.44
   6   2  -4    8.13    0.88
   6   2  -4    6.37    0.78
   6   2  -4    7.41    0.94
   6   2  -4    7.01    0.92
   6   2  -3   91.52    5.28
   6   2  -3   95.91    5.11
   6   2  -3   91.68    6.54
   6   2  -3   94.52    5.22
   6   2  -3   99.37    5.36
   6   2  -3   99.52    6.48
   6   2  -2    1.62    0.54
   6   2  -2    1.80    0.41
   6   2  -2    1.74    0.55
   6   2  -2    3.17    1.03
  -6  -2   1  257.95   13.97
   6   2  -1  268.55   13.05
   6   2  -1  231.56   13.61
   6   2  -1  270.54   14.56
   6   2   0    4.62    0.58
  -6  -2   0    4.23    0.91
   6   2   0    3.84    1.11
   6   2   0    3.08    0.80
   6   2   1   13.54    1.61
  -6  -2  -1   15.41    1.73
   6   2   2   87.80    4.69
   6   2   2   84.01    5.47
  -6  -2  -2   86.23    5.53
   6   2   2   86.72    5.98
   6   2   3    7.49    0.77
   6   2   3    7.92    1.33
   6   2   3    9.87    1.68
  -6  -2  -3    7.76    1.26
  -6  -2  -4  331.26   18.13
   6   2   4  346.13   18.30
   6   2   4  338.68   17.07
   6   2   4  363.22   18.70
   6   2   5   43.29    2.66
   6   2   5   49.63    3.87
   6   2   5   51.32    4.00
   6   2   6  440.27   22.21
   6   2   6  491.67   23.94
   6   2   6  438.02   23.70
   6   2   7   25.52    2.60
   6   2   7   21.21    1.51
   6   2   8   93.02    4.97
   6   2   8   93.96    5.10
   6   2   8   94.79    6.31
   6   2   8   88.96    5.04
   6   2   9    1.47    0.49
   6   2   9    2.30    0.54
   6   2   9    2.15    0.89
   6   2  10   10.43    1.05
   6   2  10    9.37    1.52
   6   2  10    9.05    0.97
   6   2  11    5.26    0.78
   6   2  11    7.28    1.66
   6   2  12  288.97   16.89
   6   2  13  363.45   20.68
   6   2  14    6.57    1.67
   6   2  15   29.21    3.60
   6   2  16  179.25   12.20
  -6  -2 -16  183.82    9.84
   6   2  16  204.79   10.17
  -6  -2 -17    9.99    0.98
   6   2  17   14.25    1.32
   6   2  18   54.59    3.40
   6   2  19    0.23    0.49
   6   2  20    6.25    0.78
   6   2  21   10.85    0.94
   6   2  22    0.51    0.27
  -6  -2 -22    0.92    0.30
   6   3 -17    0.25    0.24
   6   3 -17   -0.16    0.23
   6   3 -16   76.91    4.38
   6   3 -16   84.56    4.38
   6   3 -15    0.93    0.47
   6   3 -15    0.63    0.46
   6   3 -15    0.55    0.40
   6   3 -15    2.05    0.85
   6   3 -14    1.04    0.52
   6   3 -14    1.27    0.53
   6   3 -14    1.03    0.46
   6   3 -14    1.73    1.04
   6   3 -13   18.43    1.58
   6   3 -13   14.59    1.39
   6   3 -13   20.21    1.61
   6   3 -13   20.03    1.73
   6   3 -12   16.82    1.40
   6   3 -12   19.22    1.64
   6   3 -12   17.05    1.51
   6   3 -12   20.04    1.65
   6   3 -12   19.98    1.70
   6   3 -11    2.79    0.59
   6   3 -11    2.12    0.67
   6   3 -11    1.94    0.57
   6   3 -11    1.99    0.76
   6   3 -10   -0.19    0.41
   6   3 -10   -0.19    0.45
   6   3 -10    0.75    0.70
   6   3  -9   24.01    1.72
   6   3  -9   18.94    1.63
   6   3  -9   20.45    1.79
   6   3  -8   14.28    2.28
   6   3  -8   17.87    1.51
   6   3  -8   19.20    1.60
   6   3  -8   18.08    1.63
   6   3  -7   71.30    3.94
   6   3  -7   67.78    3.95
   6   3  -7   64.45    4.02
   6   3  -6    0.99    0.85
   6   3  -6   -0.12    0.39
   6   3  -6   -0.06    0.38
   6   3  -6    0.21    0.50
   6   3  -6    0.69    0.65
   6   3  -5   37.63    3.30
   6   3  -5   31.74    2.07
   6   3  -5   32.91    3.15
   6   3  -5   34.07    2.25
   6   3  -5   36.74    2.31
   6   3  -5   35.14    2.42
   6   3  -4    0.68    0.51
   6   3  -4   -0.04    0.31
   6   3  -4    0.16    0.51
   6   3  -4    0.27    0.35
   6   3  -4   -0.16    0.35
   6   3  -4    0.46    0.53
   6   3  -3   73.61    5.37
   6   3  -3   79.76    5.63
   6   3  -3   88.46    4.77
   6   3  -3   86.45    4.97
   6   3  -3   91.82    4.81
   6   3  -3   91.87    6.09
   6   3  -2   13.64    1.62
   6   3  -2   11.64    1.76
   6   3  -2   13.63    1.28
   6   3  -1   71.28    4.89
   6   3  -1   70.76    4.80
   6   3  -1   82.47    5.46
   6   3   0   16.24    1.91
   6   3   0   18.69    2.24
   6   3   1   85.98    5.64
   6   3   2   46.29    3.64
   6   3   3  322.74   16.59
   6   3   3  341.47   17.86
   6   3   3  365.77   18.23
   6   3   4   94.49    5.16
   6   3   4  100.41    6.41
   6   3   4  101.69    6.56
   6   3   5   69.33    5.13
   6   3   5   73.25    5.25
   6   3   6   15.01    2.09
   6   3   6   19.64    2.22
   6   3   7   67.77    5.07
   6   3   7   69.26    5.20
   6   3   7   67.16    5.04
   6   3   8   51.51    4.22
   6   3   8   47.12    4.16
   6   3   8   55.26    4.13
   6   3   8   46.17    2.87
   6   3   9   15.73    2.04
   6   3   9   16.23    1.35
   6   3   9   15.94    1.32
   6   3  10  214.76   12.25
   6   3  10  213.16   11.03
   6   3  11   13.29    1.88
   6   3  11   17.52    1.41
   6   3  12   69.40    5.57
   6   3  12   62.46    3.80
   6   3  13   65.45    5.64
   6   3  13   65.13    3.92
   6   3  14    0.50    0.52
   6   3  14    0.87    0.99
   6   3  15  191.38   11.91
   6   3  15  163.49    9.68
   6   3  15  186.96    9.51
   6   3  16    7.50    1.94
   6   3  16    7.52    1.25
   6   3  17   78.63    4.85
   6   3  18   11.45    1.37
   6   3  19    3.24    0.67
   6   3  19    3.52    0.81
  -6  -3 -20    9.88    1.03
   6   3  20   10.64    1.05
  -6  -3 -21    7.01    0.77
   6   3  21    6.73    0.76
   6   3  21    7.67    0.78
  -6  -3 -22   50.65    2.98
   6   3  22   57.62    3.04
   6   3  22   57.62    3.04
   6   4 -16    8.94    0.83
   6   4 -16   10.45    0.85
   6   4 -15   28.86    2.06
   6   4 -15   34.78    2.21
   6   4 -14    4.59    0.70
   6   4 -14    3.99    0.68
   6   4 -14    3.67    0.61
   6   4 -13   20.33    1.63
   6   4 -13   24.57    1.77
   6   4 -13   24.10    1.79
   6   4 -12    4.20    0.66
   6   4 -12    6.06    0.88
   6   4 -12    5.21    0.82
   6   4 -12    4.07    0.72
   6   4 -11    2.70    0.59
   6   4 -11    3.12    0.71
   6   4 -11    3.17    0.73
   6   4 -11    2.80    0.66
   6   4 -11    4.04    0.90
   6   4 -10   64.12    3.70
   6   4 -10   65.02    3.80
   6   4 -10   52.74    3.64
   6   4 -10   63.25    3.80
   6   4 -10   66.90    3.92
   6   4  -9   22.20    1.67
   6   4  -9   17.75    1.57
   6   4  -9   22.48    1.84
   6   4  -8   50.44    3.02
   6   4  -8   44.00    2.92
   6   4  -8   48.89    3.16
   6   4  -7    2.08    0.57
   6   4  -7    2.07    0.62
   6   4  -7    2.95    0.57
   6   4  -7    2.83    0.78
   6   4  -6    2.13    0.53
   6   4  -6    1.91    0.56
   6   4  -6    1.38    0.46
   6   4  -6    2.32    0.72
   6   4  -5   36.39    2.57
   6   4  -5   31.54    3.28
   6   4  -5   38.55    2.43
   6   4  -5   39.22    2.46
   6   4  -5   34.94    2.54
   6   4  -5   39.31    2.54
   6   4  -4   -0.76    0.60
   6   4  -4    0.26    0.54
   6   4  -4    0.04    0.32
   6   4  -4    0.11    0.35
   6   4  -4    0.45    0.41
   6   4  -4   -0.07    0.61
   6   4  -4    0.93    0.77
   6   4  -3  173.20   10.15
   6   4  -3  162.95    8.83
   6   4  -3  149.05    9.72
   6   4  -3  177.93    8.93
   6   4  -3  167.19    8.71
   6   4  -3  168.51    8.71
   6   4  -3  168.89    8.93
   6   4  -3  165.06    8.85
   6   4  -2   21.51    1.78
   6   4  -2   23.78    2.58
   6   4  -2   22.91    2.42
   6   4  -2   25.48    1.85
   6   4  -2   22.96    1.89
   6   4  -1  243.99   12.25
   6   4  -1  242.10   13.50
   6   4  -1  227.51   13.22
   6   4  -1  230.58   12.01
   6   4  -1  239.91   12.33
   6   4   0  270.02   13.96
   6   4   0  229.43   12.67
   6   4   0  250.49   13.67
   6   4   1    1.37    0.94
   6   4   1    1.44    0.81
   6   4   2  272.26   14.87
   6   4   2  297.19   15.68
   6   4   3    6.94    1.16
   6   4   3    5.78    1.41
   6   4   3    7.78    1.52
   6   4   4   83.41    5.44
   6   4   4   81.28    5.77
   6   4   4   84.65    5.87
   6   4   5    7.57    1.29
   6   4   5    5.99    1.33
   6   4   5    4.71    1.21
   6   4   6    5.26    1.31
   6   4   6    7.42    1.38
   6   4   6    6.55    1.36
   6   4   7   60.32    4.72
   6   4   7   64.82    4.74
   6   4   7   62.17    4.87
   6   4   8   22.26    2.49
   6   4   8   19.68    2.51
   6   4   8   20.99    2.50
   6   4   9  234.79   13.24
   6   4   9  251.53   13.69
   6   4   9  235.04   13.64
   6   4   9  227.40   11.87
   6   4   9  231.71   11.87
   6   4  10   10.40    1.81
   6   4  10    6.85    0.97
   6   4  10    8.91    1.23
   6   4  10    7.50    1.41
   6   4  10    8.36    0.91
   6   4  11    4.69    1.15
   6   4  11    4.00    0.68
   6   4  11    5.49    1.53
   6   4  11    4.01    0.77
   6   4  11    3.19    0.96
   6   4  12    6.36    0.83
   6   4  12    5.21    0.89
   6   4  12    5.88    1.07
   6   4  13   76.74    6.19
   6   4  13   69.29    4.65
   6   4  13   76.49    4.36
   6   4  14   52.03    4.92
   6   4  14   55.86    5.03
   6   4  14   44.42    3.46
   6   4  14   50.25    3.17
   6   4  15    2.15    0.65
   6   4  15    2.05    1.17
   6   4  15    2.10    1.28
   6   4  15    1.15    0.66
   6   4  15    1.40    0.88
   6   4  16   11.96    2.23
   6   4  16   10.95    2.23
   6   4  16   11.10    1.32
   6   4  16   10.98    1.50
   6   4  16   14.15    1.34
   6   4  17   21.58    2.05
   6   4  17   21.77    1.77
   6   4  18   11.05    1.39
   6   4  18   12.05    1.24
   6   4  19    8.81    1.26
   6   4  19   13.75    1.22
   6   4  20    6.10    0.78
   6   4  20    4.98    0.72
   6   4  20    3.73    0.81
  -6  -4 -21   35.70    2.18
   6   4  21   41.01    2.25
  -6  -4 -22   18.25    1.32
   6   4  22   24.72    1.42
   6   5 -16   15.54    1.05
   6   5 -15    2.01    0.44
   6   5 -15    1.04    0.37
   6   5 -15    2.11    0.70
   6   5 -14   19.29    1.43
   6   5 -14   23.16    1.50
   6   5 -14   20.98    1.76
   6   5 -13    2.65    0.56
   6   5 -13    3.42    0.65
   6   5 -13    3.21    0.57
   6   5 -13    2.62    1.14
   6   5 -12   10.95    1.07
   6   5 -12    9.86    1.01
   6   5 -12    8.57    1.03
   6   5 -11   76.18    4.38
   6   5 -11   80.08    4.49
   6   5 -11   67.34    4.38
   6   5 -10    8.82    0.97
   6   5 -10    8.12    0.96
   6   5 -10    7.45    0.99
   6   5 -10    6.13    0.87
   6   5  -9  100.29    5.35
   6   5  -9   94.57    5.34
   6   5  -9   84.92    5.25
   6   5  -9  103.51    5.45
   6   5  -8    0.56    0.46
   6   5  -8    0.43    0.41
   6   5  -8    0.30    0.42
   6   5  -7    0.06    0.43
   6   5  -7    0.24    0.39
   6   5  -7    0.46    0.35
   6   5  -6    8.03    1.14
   6   5  -6    8.66    0.96
   6   5  -6    7.69    0.89
   6   5  -6    8.70    1.00
   6   5  -5    5.82    0.90
   6   5  -5    6.84    1.36
   6   5  -5    4.54    0.89
   6   5  -5    6.43    0.81
   6   5  -5    5.12    0.76
   6   5  -5    3.70    0.64
   6   5  -4  340.18   16.35
   6   5  -4  296.74   16.03
   6   5  -4  298.07   17.55
   6   5  -4  346.74   16.42
   6   5  -4  315.14   16.09
   6   5  -4  314.72   16.11
   6   5  -4  321.61   16.22
   6   5  -3   26.19    1.85
   6   5  -3   27.42    2.08
   6   5  -3   22.93    2.74
   6   5  -3   27.14    1.88
   6   5  -3   28.18    1.90
   6   5  -3   23.98    2.81
   6   5  -3   30.15    2.12
   6   5  -3   26.36    1.98
   6   5  -2  153.48    8.06
   6   5  -2  147.71    7.89
   6   5  -2  152.04    8.09
   6   5  -2  146.84    9.37
   6   5  -2  126.12    9.07
   6   5  -2  157.99    8.15
   6   5  -2  151.65    7.88
   6   5  -1  307.74   15.91
   6   5  -1  322.19   15.78
   6   5  -1  303.40   17.25
   6   5  -1  314.79   15.92
   6   5  -1  298.71   17.25
   6   5  -1  324.42   15.97
   6   5  -1  306.35   15.72
   6   5  -1  303.80   15.70
   6   5  -1  321.65   16.02
   6   5   0  108.59    6.24
   6   5   0  111.72    6.23
   6   5   0  124.98    7.63
   6   5   0  108.18    7.47
   6   5   0  115.26    6.02
   6   5   1    4.40    0.81
   6   5   1    6.79    0.75
   6   5   1    3.82    1.34
   6   5   1    5.21    1.30
   6   5   2    2.04    1.00
   6   5   2    2.72    0.66
   6   5   3   49.28    3.95
   6   5   3   42.35    3.19
   6   5   3   41.86    3.87
   6   5   4   12.53    1.54
   6   5   4   14.16    2.03
   6   5   4   10.31    1.71
   6   5   5    0.20    0.84
   6   5   5    0.14    0.57
   6   5   5   -0.19    0.74
   6   5   6  115.22    7.36
   6   5   6  108.70    6.88
   6   5   6  102.24    7.22
   6   5   7   28.83    2.97
   6   5   7   27.16    2.77
   6   5   7   27.40    2.99
   6   5   8  242.52   13.87
   6   5   8  249.40   13.87
   6   5   8  238.89   12.73
   6   5   9    0.58    0.78
   6   5   9    2.08    0.46
   6   5   9    1.63    0.90
   6   5   9    2.07    0.83
   6   5  10   54.80    3.38
   6   5  10   54.35    3.66
   6   5  10   60.49    4.58
   6   5  10   50.13    3.19
   6   5  11   67.10    5.26
   6   5  11   63.63    5.20
   6   5  11   53.68    3.52
   6   5  11   56.81    4.56
   6   5  11   56.38    3.87
   6   5  11   60.25    3.47
   6   5  12    0.72    0.46
   6   5  12    0.51    0.79
   6   5  12    0.52    0.85
   6   5  12    0.44    0.52
   6   5  12    1.08    0.86
   6   5  13   10.72    2.12
   6   5  13   11.67    2.23
   6   5  13   11.63    1.30
   6   5  13   12.00    1.56
   6   5  13   12.91    1.21
   6   5  14  209.14   13.23
   6   5  14  209.61   11.19
   6   5  14  225.97   11.54
   6   5  14  204.84   11.01
   6   5  15   54.44    5.09
   6   5  15   52.00    3.71
   6   5  15   53.71    3.35
   6   5  16    3.40    0.71
   6   5  16    6.48    1.66
   6   5  16    3.96    1.55
   6   5  16    3.24    1.04
   6   5  17    1.92    0.61
   6   5  17    1.45    0.87
   6   5  18  163.45    9.18
   6   5  18  170.24    8.86
   6   5  19   15.54    1.61
   6   5  19   16.75    1.39
   6   5  20   49.64    2.92
   6   5  20   45.46    3.11
   6   5  20   49.20    2.92
   6   5  21    3.64    0.56
  -6  -5 -21    3.32    0.54
   6   5  21    3.56    0.55
   6   5  21    2.62    0.67
  -6  -5 -22    7.89    0.72
   6   5  22   10.03    0.77
   6   5  22    7.07    0.78
   6   5  22   11.44    0.84
   6   6 -15   11.24    0.86
   6   6 -14   31.84    1.78
   6   6 -14   28.73    1.92
   6   6 -13    1.32    0.46
   6   6 -13    0.13    0.34
   6   6 -13    0.15    1.04
   6   6 -12   16.00    1.30
   6   6 -12   16.26    1.32
   6   6 -12   16.18    1.32
   6   6 -12   18.07    1.41
   6   6 -12   18.35    1.66
   6   6 -11   16.59    1.42
   6   6 -11   16.36    1.42
   6   6 -11   19.46    1.67
   6   6 -10   21.74    1.68
   6   6 -10   20.37    1.63
   6   6 -10   23.29    1.77
   6   6 -10   24.07    1.92
   6   6  -9    1.89    0.52
   6   6  -9    1.17    0.49
   6   6  -9    0.60    0.53
   6   6  -9    1.22    0.51
   6   6  -9    0.99    0.71
   6   6  -8   14.80    1.30
   6   6  -8   13.07    1.25
   6   6  -8   13.93    1.23
   6   6  -8   13.62    1.49
   6   6  -7    0.38    0.44
   6   6  -7    0.62    0.38
   6   6  -7    0.42    0.42
   6   6  -7    0.32    0.64
   6   6  -6    6.18    1.12
   6   6  -6    5.28    0.80
   6   6  -6    9.05    0.95
   6   6  -6    7.52    0.85
   6   6  -6    7.31    0.95
   6   6  -6    5.00    0.78
   6   6  -6    6.78    1.11
   6   6  -5  168.81    8.78
   6   6  -5  154.73    8.39
   6   6  -5  165.73    8.50
   6   6  -5  180.89    8.89
   6   6  -5  164.78    8.52
   6   6  -5  141.45    8.37
   6   6  -5  150.10    8.34
   6   6  -5  174.87    8.61
   6   6  -5  171.67    8.76
   6   6  -4    0.73    0.55
   6   6  -4   -0.31    0.69
   6   6  -4    0.41    0.47
   6   6  -4    1.52    0.47
   6   6  -4    2.20    0.81
   6   6  -4    0.30    0.42
   6   6  -4    0.43    0.45
   6   6  -4    1.02    0.40
   6   6  -4    0.39    0.67
   6   6  -3    1.11    0.57
   6   6  -3    1.73    0.95
   6   6  -3    1.84    0.81
   6   6  -3    1.05    0.53
   6   6  -3    1.38    0.50
   6   6  -3    1.12    0.84
   6   6  -3    1.27    0.73
   6   6  -3    1.25    0.50
   6   6  -3    0.52    0.44
   6   6  -3    1.24    0.70
   6   6  -2  112.13    6.28
   6   6  -2  120.90    6.53
   6   6  -2  106.73    7.67
   6   6  -2  111.45    7.90
   6   6  -2  129.97    6.58
   6   6  -2  112.45    6.23
   6   6  -2  118.09    6.55
   6   6  -2  113.38    6.38
   6   6  -1   84.62    4.92
   6   6  -1   89.74    4.84
   6   6  -1   79.74    6.20
   6   6  -1   93.22    6.60
   6   6  -1   89.35    5.03
   6   6  -1   83.22    4.74
   6   6  -1   83.91    4.73
   6   6  -1   86.03    5.12
   6   6  -1   85.41    5.12
   6   6   0  163.14    8.72
   6   6   0  159.84    8.71
   6   6   0  163.05   10.23
   6   6   0  162.54   10.41
   6   6   0  163.32    8.51
   6   6   0  173.22    8.78
   6   6   0  158.84    8.47
   6   6   0  154.92    8.53
   6   6   0  170.36    8.94
   6   6   0  175.78    8.95
   6   6   1   -0.43    0.88
   6   6   1    0.07    0.55
   6   6   1   -0.42    0.55
   6   6   1    0.22    0.41
   6   6   1    1.42    1.01
   6   6   1    0.33    0.55
   6   6   1    0.14    0.32
   6   6   1   -0.45    0.44
   6   6   1    0.41    0.66
   6   6   1    0.58    0.71
   6   6   1    0.11    0.41
   6   6   2   20.03    1.72
   6   6   2   17.85    1.49
   6   6   2   21.00    2.69
   6   6   2   21.54    1.78
   6   6   2   22.45    1.68
   6   6   2   19.05    1.43
   6   6   2   19.50    1.53
   6   6   2   20.39    1.86
   6   6   2   20.79    1.89
   6   6   3    0.37    0.57
   6   6   3    0.73    0.40
   6   6   3   -0.47    1.19
   6   6   3    1.49    0.79
   6   6   4    9.90    1.77
   6   6   4   10.81    1.03
   6   6   4   12.43    2.09
   6   6   4   10.77    1.42
   6   6   4   12.64    1.11
   6   6   4   11.69    1.40
   6   6   5   92.47    6.38
   6   6   5   82.43    6.33
   6   6   5   85.93    4.83
   6   6   5   77.03    5.50
   6   6   5   93.52    5.28
   6   6   6   30.65    3.10
   6   6   6   28.05    2.62
   6   6   6   23.29    2.02
   6   6   6   26.14    1.86
   6   6   6   23.68    2.13
   6   6   7  314.35   17.95
   6   6   7  331.21   18.44
   6   6   7  333.91   17.03
   6   6   7  330.57   16.74
   6   6   7  338.78   17.17
   6   6   8   -0.21    0.73
   6   6   8   -0.19    0.72
   6   6   8    0.72    0.65
   6   6   8    0.18    0.74
   6   6   8    0.63    0.40
   6   6   9   88.03    6.31
   6   6   9   85.94    6.30
   6   6   9   89.41    6.48
   6   6   9   84.83    5.14
   6   6   9   84.09    5.25
   6   6  10  190.23   10.92
   6   6  10  183.21   10.59
   6   6  10  155.52    9.18
   6   6  10  164.97   10.68
   6   6  10  169.18    8.98
   6   6  10  191.07    9.49
   6   6  10  162.82    8.76
   6   6  11    0.68    0.44
   6   6  11    0.30    0.37
   6   6  11   -0.98    1.01
   6   6  11    1.24    0.99
   6   6  11    0.70    0.78
   6   6  11    0.74    0.54
   6   6  11    0.60    0.79
   6   6  12  110.55    8.14
   6   6  12  111.87    8.09
   6   6  12  114.76    6.66
   6   6  12  111.14    6.42
   6   6  12  124.24    6.89
   6   6  12  117.38    6.27
   6   6  13    6.87    1.70
   6   6  13    7.20    1.24
   6   6  13    7.01    1.75
   6   6  13    7.59    1.03
   6   6  13    9.45    1.40
   6   6  13    7.99    0.92
   6   6  14  173.95   11.83
   6   6  14  187.63   11.86
   6   6  14  167.23    9.88
   6   6  14  185.83    9.80
   6   6  14  191.78   10.15
   6   6  14  187.89    9.60
   6   6  15   57.15    5.19
   6   6  15   44.99    3.61
   6   6  15   60.87    3.68
   6   6  15   61.35    4.02
   6   6  15   59.88    3.47
   6   6  16    0.06    0.47
   6   6  16    1.07    0.75
   6   6  16    0.39    0.59
   6   6  16    1.95    0.94
   6   6  17  194.10    9.95
   6   6  17  201.00   10.25
   6   6  17  196.39    9.75
   6   6  18    3.64    0.65
   6   6  18    2.33    0.95
   6   6  19   23.88    2.08
   6   6  19   25.18    1.75
   6   6  20    0.09    0.36
   6   6  20    0.61    0.35
   6   6  20   -0.13    0.66
   6   6  21   32.06    2.00
   6   6  21   31.43    2.25
   6   6  21   36.17    2.07
   6   6  22    1.31    0.31
  -6  -6 -22    0.91    0.25
   6   6  22    0.78    0.42
   6   7 -14    1.42    0.35
   6   7 -14    0.62    0.28
   6   7 -13   33.89    2.13
   6   7 -13   32.30    2.30
   6   7 -12    0.57    0.42
   6   7 -12    0.04    0.36
   6   7 -12    1.23    1.00
   6   7 -11   31.32    2.07
   6   7 -11   29.31    2.05
   6   7 -11   33.28    2.13
   6   7 -11   31.61    2.26
   6   7 -10    2.06    0.56
   6   7 -10    1.01    0.43
   6   7 -10    1.50    0.58
   6   7 -10    0.93    0.47
   6   7 -10    1.91    0.68
   6   7  -9    0.36    0.38
   6   7  -9    0.45    0.51
   6   7  -9    0.41    0.44
   6   7  -9    0.43    0.64
   6   7  -8   39.76    2.56
   6   7  -8   33.67    2.40
   6   7  -8   42.97    2.66
   6   7  -8   41.39    2.75
   6   7  -7    2.80    0.62
   6   7  -7    3.50    0.56
   6   7  -7    2.75    0.63
   6   7  -7    1.24    0.71
   6   7  -6   85.17    4.80
   6   7  -6   80.74    4.48
   6   7  -6   80.62    4.49
   6   7  -6   74.78    4.40
   6   7  -6   68.09    4.25
   6   7  -6   82.79    4.70
   6   7  -5   19.30    1.80
   6   7  -5   17.02    1.49
   6   7  -5   17.27    1.39
   6   7  -5   19.03    1.78
   6   7  -5   16.92    1.48
   6   7  -5   14.93    1.39
   6   7  -5   18.87    1.55
   6   7  -5   17.53    1.68
   6   7  -4   12.48    1.43
   6   7  -4   12.84    1.24
   6   7  -4   12.06    1.13
   6   7  -4   13.21    1.48
   6   7  -4   10.60    1.13
   6   7  -4   10.63    1.10
   6   7  -4   11.89    1.20
   6   7  -4   12.50    1.42
   6   7  -3   25.26    2.18
   6   7  -3   26.49    1.99
   6   7  -3   19.84    2.93
   6   7  -3   28.54    2.22
   6   7  -3   26.53    1.94
   6   7  -3   25.39    1.84
   6   7  -3   25.85    1.92
   6   7  -3   27.49    2.20
   6   7  -3   29.07    1.95
   6   7  -3   27.22    2.00
   6   7  -2    1.20    0.57
   6   7  -2    0.92    0.77
   6   7  -2    1.54    0.61
   6   7  -2    1.13    0.49
   6   7  -2    1.58    1.19
   6   7  -2    0.76    0.73
   6   7  -2    1.26    0.47
   6   7  -2    1.29    0.70
   6   7  -2    1.39    0.50
   6   7  -1  249.23   12.30
   6   7  -1  230.96   14.42
   6   7  -1  256.49   12.59
   6   7  -1  230.67   12.23
   6   7  -1  235.44   12.27
   6   7  -1  241.55   12.56
   6   7  -1  239.48   12.69
   6   7  -1  227.96   12.31
   6   7   0    0.06    0.53
   6   7   0    0.56    0.56
   6   7   0    0.49    0.49
   6   7   0    0.54    0.46
   6   7   0    1.60    1.10
   6   7   0    1.49    0.73
   6   7   0    0.43    0.40
   6   7   0    0.65    0.40
   6   7   0    0.28    0.78
   6   7   0    0.76    0.76
   6   7   0    0.54    0.46
   6   7   1  299.55   15.88
   6   7   1  309.90   15.96
   6   7   1  328.85   15.87
   6   7   1  316.52   18.17
   6   7   1  296.94   17.61
   6   7   1  292.66   15.69
   6   7   1  307.18   15.73
   6   7   1  306.28   15.82
   6   7   1  319.47   16.19
   6   7   1  343.49   16.32
   6   7   1  323.18   16.03
   6   7   2    0.82    0.54
   6   7   2   -0.30    0.63
   6   7   2    0.47    0.85
   6   7   2    0.65    0.48
   6   7   2    0.27    1.28
   6   7   2   -0.08    0.71
   6   7   2    0.80    0.66
   6   7   2    0.98    0.40
   6   7   2    1.01    0.38
   6   7   2    0.57    0.75
   6   7   2    1.85    0.81
   6   7   2    0.49    0.46
   6   7   3    1.73    0.72
   6   7   3    2.69    0.57
   6   7   3    2.13    1.35
   6   7   3    1.43    0.79
   6   7   3    2.54    0.71
   6   7   3    2.22    0.46
   6   7   3    2.48    0.51
   6   7   3    2.12    0.90
   6   7   3    2.16    0.90
   6   7   4  125.57    6.80
   6   7   4  117.90    6.44
   6   7   4  124.10    8.30
   6   7   4  127.61    6.87
   6   7   4  125.21    6.65
   6   7   4  110.10    6.29
   6   7   4  111.09    6.35
   6   7   4  121.87    6.54
   6   7   4  142.48    7.12
   6   7   5    6.83    1.60
   6   7   5    5.79    0.76
   6   7   5    5.81    1.08
   6   7   5    5.95    0.88
   6   7   5    5.81    1.10
   6   7   5    5.72    0.80
   6   7   6   34.31    3.20
   6   7   6   42.47    4.01
   6   7   6   40.32    2.89
   6   7   6   39.45    2.58
   6   7   6   39.78    3.04
   6   7   7   -0.23    0.68
   6   7   7    1.71    1.16
   6   7   7    1.35    0.79
   6   7   7   -0.18    0.55
   6   7   7    1.40    0.85
   6   7   7    0.32    0.40
   6   7   8    8.30    0.93
   6   7   8    9.87    1.93
   6   7   8    8.74    1.27
   6   7   8    7.26    1.50
   6   7   8    7.56    1.30
   6   7   8    6.58    0.91
   6   7   9  144.12    9.79
   6   7   9  173.75    8.40
   6   7   9  147.78   10.08
   6   7   9  154.22    8.78
   6   7   9  152.85    8.36
   6   7   9  157.17    8.86
   6   7  10    0.51    0.42
   6   7  10   -1.43    0.96
   6   7  10   -0.23    0.76
   6   7  10   -0.12    0.41
   6   7  10    0.83    0.83
   6   7  10    0.74    0.98
   6   7  11   82.04    4.34
   6   7  11   75.73    6.09
   6   7  11   69.08    4.72
   6   7  11   69.57    4.36
   6   7  11   72.14    5.97
   6   7  11   82.86    4.96
   6   7  12    2.62    0.54
   6   7  12    3.37    1.26
   6   7  12    1.55    0.90
   6   7  12    1.59    0.61
   6   7  12    2.99    1.05
   6   7  13   49.32    4.96
   6   7  13   51.87    3.88
   6   7  13   62.53    3.65
   6   7  13   57.67    4.04
   6   7  13   58.86    3.40
   6   7  14   18.16    2.62
   6   7  14   15.18    1.64
   6   7  14   12.37    1.32
   6   7  14   16.34    1.79
   6   7  14   10.89    1.12
   6   7  15    5.86    0.81
   6   7  15    6.91    1.65
   6   7  15    6.96    1.23
   6   7  15    7.70    1.03
   6   7  15    5.71    1.27
   6   7  16  129.60    7.78
   6   7  16  152.10    7.71
   6   7  16  148.80    8.05
   6   7  16  135.48    7.43
   6   7  17    2.51    0.57
   6   7  17    3.71    0.94
   6   7  17    3.28    0.74
   6   7  17    1.83    0.94
   6   7  18   45.76    3.40
   6   7  18   63.43    3.49
   6   7  18   53.02    3.66
   6   7  18   56.35    3.22
   6   7  19    0.17    0.34
   6   7  19    0.46    0.57
   6   7  19    0.94    0.71
   6   7  20    4.47    0.58
   6   7  20    4.56    0.90
   6   7  21   12.18    1.24
   6   7  21   13.47    0.97
   6   7  22   -0.32    0.42
   6   8 -13    2.09    0.39
   6   8 -12   16.70    1.27
   6   8 -12   20.87    1.37
   6   8 -11    5.83    0.80
   6   8 -11    6.39    0.74
   6   8 -11    5.18    0.67
   6   8 -11    4.91    1.05
   6   8 -10    4.38    0.69
   6   8 -10    5.21    0.73
   6   8 -10    2.78    0.57
   6   8 -10    4.17    0.89
   6   8  -9   91.80    4.84
   6   8  -9   79.83    4.69
   6   8  -9   85.82    4.78
   6   8  -9   80.14    4.79
   6   8  -8    0.07    0.49
   6   8  -8   -0.13    0.52
   6   8  -8    0.47    0.45
   6   8  -8   -0.07    0.58
   6   8  -7   98.32    5.59
   6   8  -7  103.16    5.64
   6   8  -7  104.56    5.72
   6   8  -7  100.81    5.77
   6   8  -6    9.57    1.07
   6   8  -6   10.21    1.37
   6   8  -6    8.94    1.02
   6   8  -6    8.97    1.18
   6   8  -5    9.76    1.13
   6   8  -5   11.62    1.47
   6   8  -5   11.11    1.13
   6   8  -5   10.97    1.32
   6   8  -4   35.60    2.58
   6   8  -4   32.32    2.28
   6   8  -4   26.43    2.07
   6   8  -4   36.50    2.61
   6   8  -4   29.90    2.14
   6   8  -4   32.21    2.25
   6   8  -4   29.70    2.33
   6   8  -3    9.36    1.14
   6   8  -3   10.22    1.38
   6   8  -3   10.14    1.07
   6   8  -3   12.03    1.39
   6   8  -3    8.01    0.97
   6   8  -3   10.99    1.13
   6   8  -3    7.95    1.17
   6   8  -2    7.00    0.90
   6   8  -2    8.05    1.25
   6   8  -2    7.61    0.92
   6   8  -2    5.60    1.76
   6   8  -2    7.71    1.20
   6   8  -2    7.49    0.91
   6   8  -2    9.01    1.02
   6   8  -2    9.79    1.22
   6   8  -2    6.70    0.89
   6   8  -1    5.46    0.81
   6   8  -1    4.88    0.80
   6   8  -1    5.39    1.82
   6   8  -1    6.32    1.13
   6   8  -1    6.19    0.85
   6   8  -1    5.97    0.79
   6   8  -1    5.94    1.28
   6   8  -1    4.50    1.02
   6   8  -1    5.55    0.84
   6   8   0   50.11    3.17
   6   8   0   50.44    3.14
   6   8   0   49.58    5.02
   6   8   0   53.18    3.45
   6   8   0   49.84    3.09
   6   8   0   52.01    3.17
   6   8   0   42.79    3.29
   6   8   0   53.62    3.65
   6   8   0   47.12    3.06
   6   8   1  163.87    9.12
   6   8   1  151.52    9.21
   6   8   1  187.88    9.27
   6   8   1  179.25    9.21
   6   8   1  182.94   11.72
   6   8   1  182.36    9.50
   6   8   1  172.75    9.14
   6   8   1  171.66    9.22
   6   8   1  178.68    9.50
   6   8   1  190.39    9.79
   6   8   2   28.57    2.13
   6   8   2   26.75    2.25
   6   8   2   36.01    2.25
   6   8   2   26.38    3.60
   6   8   2   33.29    2.57
   6   8   2   32.19    2.45
   6   8   2   30.51    2.11
   6   8   2   31.66    2.23
   6   8   2   27.53    2.42
   6   8   2   30.41    2.63
   6   8   2   30.10    2.19
   6   8   3   33.61    2.39
   6   8   3   34.18    2.57
   6   8   3   32.28    2.32
   6   8   3   35.15    2.77
   6   8   3   35.90    2.59
   6   8   3   34.98    2.31
   6   8   3   41.51    3.02
   6   8   3   32.36    2.66
   6   8   4   -0.07    0.48
   6   8   4    0.76    0.64
   6   8   4   -0.12    0.45
   6   8   4    0.52    0.48
   6   8   4    0.10    0.76
   6   8   4    0.64    0.67
   6   8   4    0.62    0.44
   6   8   4    0.77    0.83
   6   8   4    0.09    0.71
   6   8   5   31.16    2.47
   6   8   5   31.52    2.17
   6   8   5   33.53    2.25
   6   8   5   31.19    2.10
   6   8   5   29.88    2.62
   6   8   5   30.42    2.36
   6   8   5   27.08    2.18
   6   8   5   36.12    2.33
   6   8   5   29.48    2.66
   6   8   6    4.60    0.78
   6   8   6    4.16    0.67
   6   8   6    5.10    0.79
   6   8   6    6.17    1.80
   6   8   6    6.02    1.16
   6   8   6    3.67    0.62
   6   8   6    5.03    0.93
   6   8   6    3.53    1.07
   6   8   7    3.63    0.68
   6   8   7    3.30    1.43
   6   8   7    1.01    0.97
   6   8   7    3.11    0.74
   6   8   7    0.99    0.94
   6   8   7    2.50    0.67
   6   8   8   12.79    1.21
   6   8   8   11.62    2.20
   6   8   8   11.93    1.56
   6   8   8   11.82    1.21
   6   8   8    8.95    1.51
   6   8   9   20.33    1.60
   6   8   9   16.34    2.61
   6   8   9   19.50    1.98
   6   8   9   17.89    1.58
   6   8   9   18.50    2.03
   6   8  10  270.79   14.13
   6   8  10  263.56   16.27
   6   8  10  289.13   14.67
   6   8  10  267.77   14.15
   6   8  10  296.14   14.77
   6   8  11    1.60    1.07
   6   8  11    0.62    0.87
   6   8  11    0.24    0.44
   6   8  11    0.90    0.50
   6   8  11    1.64    0.95
   6   8  11    0.55    0.48
   6   8  12   36.86    2.55
   6   8  12   45.23    3.17
   6   8  12   48.73    4.51
   6   8  12   39.36    2.64
   6   8  12   41.05    3.16
   6   8  13   10.23    2.10
   6   8  13    9.43    1.43
   6   8  13   10.44    1.12
   6   8  13    7.63    1.45
   6   8  14    2.14    1.21
   6   8  14    1.27    0.90
   6   8  14    1.27    0.52
   6   8  14    1.08    0.93
   6   8  15    6.71    1.22
   6   8  15    5.59    0.86
   6   8  15    7.22    1.26
   6   8  16   63.41    4.05
   6   8  16   67.69    3.77
   6   8  16   68.95    4.23
   6   8  16   54.98    3.44
   6   8  17  120.92    7.35
   6   8  17  136.57    7.20
   6   8  17  142.78    7.60
   6   8  18    7.85    1.12
   6   8  18    8.96    1.30
   6   8  19    5.52    0.91
   6   8  19    8.22    1.17
   6   8  20    8.40    0.94
   6   8  20   10.11    1.18
   6   8  21    2.90    0.67
   6   8  22   22.29    1.55
   6   9 -12    5.24    0.56
   6   9 -11    0.08    0.33
   6   9 -11   -0.19    0.31
   6   9 -10   47.15    3.19
   6   9 -10   51.47    3.02
   6   9  -9    6.81    0.90
   6   9  -9    8.68    0.91
   6   9  -9    6.47    0.80
   6   9  -8   44.94    2.81
   6   9  -8   46.61    2.74
   6   9  -8   45.66    2.81
   6   9  -8   37.61    2.67
   6   9  -7   15.80    1.37
   6   9  -7   18.81    1.52
   6   9  -7   14.54    1.34
   6   9  -7   17.86    1.49
   6   9  -7   14.13    1.36
   6   9  -6    0.50    0.78
   6   9  -6   -0.31    0.54
   6   9  -6   -0.21    0.50
   6   9  -6   -0.08    0.75
   6   9  -6    0.54    0.52
   6   9  -6    0.18    0.45
   6   9  -6    0.68    0.53
   6   9  -5    6.78    1.16
   6   9  -5    5.70    0.89
   6   9  -5    8.28    1.03
   6   9  -5    5.59    0.83
   6   9  -5    4.60    0.88
   6   9  -4    0.65    0.91
   6   9  -4    0.14    0.54
   6   9  -4    0.46    0.55
   6   9  -4    0.51    0.48
   6   9  -4   -0.62    0.63
   6   9  -3   43.00    3.08
   6   9  -3   37.82    2.70
   6   9  -3   41.54    2.78
   6   9  -3   42.97    3.03
   6   9  -3   38.30    2.63
   6   9  -3   39.95    2.69
   6   9  -3   37.59    2.72
   6   9  -2    0.59    0.90
   6   9  -2    1.06    0.52
   6   9  -2    0.68    0.80
   6   9  -2    0.93    0.53
   6   9  -2    1.10    0.49
   6   9  -2    1.91    0.73
   6   9  -2    0.72    0.54
   6   9  -1    5.43    1.23
   6   9  -1    7.56    1.04
   6   9  -1    5.17    0.88
   6   9  -1    7.39    1.96
   6   9  -1    7.14    1.21
   6   9  -1    6.48    0.90
   6   9  -1    6.91    0.95
   6   9  -1    5.05    0.99
   6   9  -1    6.14    0.93
   6   9   0    0.51    0.58
   6   9   0    0.63    0.58
   6   9   0    1.95    1.39
   6   9   0    1.27    0.89
   6   9   0    1.15    0.53
   6   9   0    0.82    0.56
   6   9   0    1.03    1.03
   6   9   0    0.62    0.69
   6   9   0    1.38    0.62
   6   9   1   60.96    3.67
   6   9   1   59.33    3.64
   6   9   1   65.27    3.69
   6   9   1   59.66    3.99
   6   9   1   49.46    3.50
   6   9   1   58.50    3.61
   6   9   1   56.84    3.79
   6   9   1   60.20    3.71
   6   9   1   64.28    4.26
   6   9   2   66.90    4.45
   6   9   2   75.00    4.45
   6   9   2   77.27    4.52
   6   9   2   77.27    4.45
   6   9   2   82.69    4.83
   6   9   2   75.95    4.46
   6   9   2   73.03    4.66
   6   9   2   76.83    4.54
   6   9   2   85.40    5.15
   6   9   3    0.39    0.60
   6   9   3   -0.07    0.47
   6   9   3    0.75    0.83
   6   9   3    0.33    0.42
   6   9   3    0.37    0.76
   6   9   3    0.13    0.52
   6   9   3    1.08    1.00
   6   9   3    0.77    0.71
   6   9   4   62.98    4.21
   6   9   4   64.83    4.02
   6   9   4   71.87    4.16
   6   9   4   72.36    6.28
   6   9   4   75.10    4.07
   6   9   4   67.19    4.59
   6   9   4   67.16    4.36
   6   9   4   64.71    4.10
   6   9   4   68.89    4.18
   6   9   4   68.61    4.35
   6   9   4   71.02    4.74
   6   9   5   -0.23    0.66
   6   9   5    0.34    0.63
   6   9   5    0.37    0.47
   6   9   5    0.57    0.56
   6   9   5    1.24    1.24
   6   9   5    0.98    0.88
   6   9   5    0.36    0.46
   6   9   5   -0.54    0.79
   6   9   5   -0.69    1.55
   6   9   5    0.96    0.99
   6   9   5    1.34    0.79
   6   9   6   52.69    3.88
   6   9   6   57.92    3.60
   6   9   6   71.97    3.88
   6   9   6   65.96    5.84
   6   9   6   58.87    3.61
   6   9   6   58.12    4.20
   6   9   6   61.82    3.97
   6   9   6   65.89    3.86
   6   9   6   64.36    4.40
   6   9   6   58.83    4.02
   6   9   7   10.12    1.13
   6   9   7   10.12    2.24
   6   9   7    7.21    1.04
   6   9   7    9.19    1.49
   6   9   7    8.91    1.24
   6   9   7    9.34    1.13
   6   9   7    7.73    1.50
   6   9   8    3.97    0.83
   6   9   8    4.31    0.81
   6   9   8    4.69    1.56
   6   9   8    2.95    1.15
   6   9   8    4.41    0.93
   6   9   8    4.85    1.23
   6   9   9  137.99    7.30
   6   9   9  137.20    9.55
   6   9   9  142.21    7.83
   6   9   9  113.98    7.29
   6   9   9  136.34    7.30
   6   9   9  144.95    7.87
   6   9  10    2.70    0.65
   6   9  10    3.74    1.43
   6   9  10    2.79    1.09
   6   9  10    2.25    1.05
   6   9  10    2.06    0.64
   6   9  11   45.27    2.96
   6   9  11   49.52    4.81
   6   9  11   44.51    3.44
   6   9  11   43.66    2.96
   6   9  11   56.17    3.65
   6   9  12   40.73    4.27
   6   9  12   39.07    3.12
   6   9  12   40.63    3.17
   6   9  13    4.15    1.47
   6   9  13    5.24    1.18
   6   9  13    4.10    1.13
   6   9  14   96.53    5.52
   6   9  14   80.34    4.93
   6   9  14   98.14    5.61
   6   9  15    6.29    1.21
   6   9  15    4.90    0.75
   6   9  15    6.86    1.26
   6   9  16   22.69    2.03
   6   9  16   23.19    2.15
   6   9  17    7.61    1.14
   6   9  17    7.78    1.30
   6   9  18    1.82    0.74
   6   9  18    1.64    0.82
   6   9  19   46.81    3.12
   6   9  19   57.65    3.37
   6   9  20    0.24    0.48
   6   9  20    0.55    0.58
   6   9  21   10.80    1.08
   6  10 -11    9.33    0.92
   6  10 -10    0.06    0.27
   6  10 -10    0.10    0.37
   6  10  -9   19.58    2.20
   6  10  -9   22.17    1.52
   6  10  -9   25.04    1.62
   6  10  -8    3.37    1.42
   6  10  -8    3.41    0.61
   6  10  -8    3.11    0.56
   6  10  -7    8.87    0.96
   6  10  -7   10.05    1.25
   6  10  -7   10.34    1.03
   6  10  -7   12.16    1.10
   6  10  -6   17.00    1.44
   6  10  -6   16.76    1.49
   6  10  -6   15.47    1.37
   6  10  -6   18.31    1.51
   6  10  -5    6.20    0.92
   6  10  -5    6.72    0.97
   6  10  -5    5.36    0.80
   6  10  -4   79.24    4.51
   6  10  -4   73.97    4.17
   6  10  -4   78.52    4.27
   6  10  -4   66.12    4.03
   6  10  -3    0.76    0.88
   6  10  -3    1.14    0.62
   6  10  -3    1.29    0.55
   6  10  -3    1.11    0.52
   6  10  -2   36.41    2.82
   6  10  -2   36.71    2.51
   6  10  -2   40.23    2.81
   6  10  -2   32.26    2.32
   6  10  -2   35.49    2.46
   6  10  -2   29.10    2.27
   6  10  -2   30.72    2.31
   6  10  -1   67.56    3.89
   6  10  -1   64.69    4.22
   6  10  -1   70.36    4.24
   6  10  -1   55.74    3.69
   6  10  -1   67.24    3.87
   6  10  -1   53.19    3.66
   6  10  -1   62.83    3.81
   6  10   0   38.75    2.68
   6  10   0   41.10    2.75
   6  10   0   44.13    3.14
   6  10   0   34.98    2.58
   6  10   0   41.65    2.71
   6  10   0   34.35    2.58
   6  10   0   38.64    2.69
   6  10   1  131.46    6.97
   6  10   1  131.68    6.99
   6  10   1  142.12    7.42
   6  10   1  113.77    6.84
   6  10   1  127.34    6.96
   6  10   1  114.53    6.85
   6  10   1  126.99    7.01
   6  10   1  132.14    7.57
   6  10   2    5.24    0.94
   6  10   2    6.33    0.93
   6  10   2    9.67    2.25
   6  10   2    5.49    0.95
   6  10   2    4.43    0.83
   6  10   2    5.39    1.19
   6  10   2    4.37    0.81
   6  10   2    5.93    1.06
   6  10   2    5.99    1.39
   6  10   2    4.84    0.90
   6  10   3  152.62    7.74
   6  10   3  149.12   10.40
   6  10   3  145.11    7.74
   6  10   3  151.74    8.30
   6  10   3  158.38    8.21
   6  10   3  135.61    7.79
   6  10   3  119.63    7.68
   6  10   3  147.63    8.39
   6  10   4    1.64    0.61
   6  10   4    2.08    0.65
   6  10   4    1.95    1.30
   6  10   4    2.84    1.15
   6  10   4    2.96    0.65
   6  10   4    1.69    0.94
   6  10   4    4.25    2.01
   6  10   4    2.23    1.16
   6  10   4    1.44    0.70
   6  10   5    5.10    0.95
   6  10   5    4.33    0.88
   6  10   5    5.36    0.84
   6  10   5    6.53    0.99
   6  10   5    7.37    1.95
   6  10   5    8.09    1.46
   6  10   5    7.83    1.03
   6  10   5    6.90    1.23
   6  10   5    6.65    1.42
   6  10   5    5.40    1.01
   6  10   6   41.55    3.13
   6  10   6   46.76    2.94
   6  10   6   52.54    3.18
   6  10   6   50.25    5.08
   6  10   6   42.12    3.14
   6  10   6   52.12    3.65
   6  10   6   44.63    3.27
   6  10   6   54.44    3.22
   6  10   6   39.64    3.11
   6  10   6   48.64    3.67
   6  10   7   -0.23    0.56
   6  10   7   -0.74    0.71
   6  10   7   -0.05    0.40
   6  10   7   -0.22    0.56
   6  10   7   -0.62    1.32
   6  10   7   -1.28    1.73
   6  10   7   -0.22    0.96
   6  10   7    0.73    0.79
   6  10   7    0.72    0.97
   6  10   7    1.06    0.70
   6  10   8   87.13    4.98
   6  10   8   84.12    7.04
   6  10   8   86.39    5.44
   6  10   8   80.03    5.09
   6  10   8   90.24    5.02
   6  10   8  103.01    5.69
   6  10   8   71.45    4.98
   6  10   9    0.30    1.07
   6  10   9    1.86    1.01
   6  10   9    1.50    0.72
   6  10   9    0.12    0.93
   6  10   9    0.29    0.53
   6  10  10   30.71    3.89
   6  10  10   34.85    2.88
   6  10  10   28.30    2.42
   6  10  10   37.25    2.44
   6  10  10   37.09    2.97
   6  10  11   48.37    4.90
   6  10  11   53.01    3.65
   6  10  11   46.56    3.10
   6  10  11   52.78    3.71
   6  10  12   -1.32    1.01
   6  10  12    0.64    0.95
   6  10  12    0.47    0.42
   6  10  13   78.34    5.05
   6  10  13   84.64    5.17
   6  10  14    1.38    0.96
   6  10  14    2.79    1.03
   6  10  15   24.58    2.21
   6  10  15   27.72    2.36
   6  10  16    0.39    0.74
   6  10  16   -0.35    0.81
   6  10  17   -0.07    0.67
   6  10  17    0.47    0.78
   6  10  18   41.83    2.88
   6  10  18   48.35    3.07
   6  10  19    0.42    0.54
   6  10  19   -0.75    0.65
   6  10  20   22.13    1.67
   6  10  20   33.10    2.00
   6  10  21   -0.16    0.31
   6  11  -9   13.24    1.35
   6  11  -8    9.23    1.14
   6  11  -7   17.51    2.32
   6  11  -7   18.39    1.33
   6  11  -7   20.30    1.55
   6  11  -6    0.04    0.41
   6  11  -6    1.59    1.91
   6  11  -6   -0.18    0.39
   6  11  -6    0.05    0.54
   6  11  -5   41.55    2.55
   6  11  -5   36.02    2.98
   6  11  -5   40.74    2.75
   6  11  -5   38.00    2.48
   6  11  -5   38.86    2.58
   6  11  -4    0.82    0.56
   6  11  -4    1.44    1.35
   6  11  -4    0.77    0.48
   6  11  -3   25.28    2.16
   6  11  -3   23.47    1.80
   6  11  -2   72.44    4.20
   6  11  -2   65.03    3.97
   6  11  -2   72.08    4.14
   6  11  -2   62.72    3.92
   6  11  -1    2.02    0.66
   6  11  -1    0.95    0.89
   6  11  -1    1.13    0.56
   6  11  -1    3.21    0.94
   6  11  -1    2.27    0.62
   6  11   0   92.14    5.33
   6  11   0  105.78    5.85
   6  11   0   96.97    5.52
   6  11   0  104.45    5.82
   6  11   0   83.16    5.24
   6  11   0   91.83    5.49
   6  11   0   95.55    5.38
   6  11   1    0.27    0.54
   6  11   1    0.45    0.89
   6  11   1    0.40    0.91
   6  11   1    0.38    0.47
   6  11   1    1.17    1.67
   6  11   1    0.37    0.57
   6  11   2  100.32    5.47
   6  11   2  105.56    5.94
   6  11   2   80.67    7.59
   6  11   2   93.79    5.61
   6  11   2   98.87    5.91
   6  11   2   90.80    5.55
   6  11   3  111.63    5.92
   6  11   3   92.36    8.05
   6  11   3   99.54    6.09
   6  11   3  114.85    6.40
   6  11   3   98.34    6.48
   6  11   3  108.22    6.06
   6  11   4   32.85    2.30
   6  11   4   32.03    2.93
   6  11   4   30.50    4.04
   6  11   4   34.87    2.89
   6  11   4   37.11    2.81
   6  11   5   22.82    1.80
   6  11   5   26.37    2.80
   6  11   5   28.19    2.46
   6  11   5   26.97    2.28
   6  11   5   23.06    1.98
   6  11   6    5.16    0.90
   6  11   6    4.37    0.85
   6  11   6    5.17    0.76
   6  11   6    6.46    1.90
   6  11   6    5.61    1.31
   6  11   6    5.70    1.12
   6  11   6    5.88    2.22
   6  11   7  102.36    6.75
   6  11   7  111.52    9.07
   6  11   7  139.01    7.44
   6  11   7  133.93    7.23
   6  11   7  143.18    7.01
   6  11   8    1.24    0.61
   6  11   8    1.46    0.64
   6  11   8    0.30    1.06
   6  11   8    2.13    1.03
   6  11   8    2.36    0.87
   6  11   8    0.79    1.01
   6  11   8    1.08    0.58
   6  11   9   31.79    2.59
   6  11   9   45.65    3.16
   6  11   9   39.83    2.82
   6  11   9   44.39    2.73
   6  11   9   30.97    2.53
   6  11   9   46.66    3.30
   6  11  10   32.83    2.60
   6  11  10   26.54    2.19
   6  11  10   33.75    2.18
   6  11  10   35.15    2.70
   6  11  11    0.59    0.95
   6  11  11    0.83    0.61
   6  11  11   -0.21    0.95
   6  11  11    0.44    0.62
   6  11  11    0.61    0.53
   6  11  12  114.52    6.42
   6  11  12  103.63    5.88
   6  11  12  112.32    6.50
   6  11  13   -0.09    0.92
   6  11  13    0.48    0.98
   6  11  14   36.57    2.74
   6  11  14   34.72    2.75
   6  11  15   -0.30    0.78
   6  11  15    0.67    0.76
   6  11  16    3.05    0.86
   6  11  16    3.48    0.92
   6  11  17    3.92    0.88
   6  11  17    5.95    0.98
   6  11  18    4.64    0.78
   6  11  18    6.07    0.93
   6  11  19   27.11    1.97
   6  11  19   36.62    2.20
   6  11  20    4.17    0.61
   6  12  -6    0.40    1.65
   6  12  -5    0.11    0.34
   6  12  -5    2.07    1.46
   6  12  -5    2.65    1.74
   6  12  -4   13.35    1.08
   6  12  -4    9.71    2.26
   6  12  -4   10.84    1.22
   6  12  -4   10.82    0.99
   6  12  -4    7.73    2.01
   6  12  -3   27.88    2.19
   6  12  -3   29.31    3.15
   6  12  -3   28.40    1.91
   6  12  -2    2.13    0.62
   6  12  -2    2.95    2.61
   6  12  -2    2.06    0.52
   6  12  -1   30.42    2.01
   6  12  -1   25.99    1.90
   6  12  -1   29.81    3.11
   6  12  -1   25.47    1.91
   6  12   0    0.92    0.50
   6  12   0    0.34    2.65
   6  12   0    0.25    0.75
   6  12   0    1.85    2.70
   6  12   0    1.12    0.50
   6  12   1    7.45    0.93
   6  12   1    7.57    2.78
   6  12   1    7.41    1.23
   6  12   1    7.26    0.98
   6  12   2    1.66    0.57
   6  12   2    3.48    2.75
   6  12   2    0.81    0.85
   6  12   2    1.56    0.65
   6  12   3    1.29    0.57
   6  12   3    1.80    2.56
   6  12   3    3.09    1.00
   6  12   3    1.26    0.67
   6  12   4  137.75    7.36
   6  12   4  129.16    7.74
   6  12   4  149.32    7.85
   6  12   5    6.42    0.85
   6  12   5    7.66    1.23
   6  12   5    8.41    1.08
   6  12   6   28.61    2.01
   6  12   6   30.38    2.61
   6  12   6   31.23    2.46
   6  12   6   33.01    2.28
   6  12   7    0.27    0.49
   6  12   7    0.10    0.92
   6  12   7   -0.17    0.70
   6  12   8    0.19    0.88
   6  12   8    1.19    0.75
   6  12   8    0.72    0.55
   6  12   9   15.58    1.76
   6  12   9   12.25    1.42
   6  12   9   15.64    1.38
   6  12  10    2.41    0.98
   6  12  10    0.41    0.69
   6  12  10    2.10    0.61
   6  12  11   75.49    4.49
   6  12  11   76.03    4.05
   6  12  12    1.95    0.88
   6  12  12    2.30    0.61
   6  12  13    6.53    0.87
   6  12  13    8.49    1.20
   6  12  14    5.08    0.97
   6  12  15    6.98    1.06
   6  12  16   14.25    1.37
   6  12  17   -0.29    0.34
   6  12  17    0.27    0.50
   6  12  18   14.78    1.19
   6  13  -3    0.56    0.50
   6  13  -2   25.26    1.91
   6  13  -2   28.14    1.78
   6  13  -1    1.85    0.64
   6  13  -1    1.38    0.44
   6  13   0   10.62    1.27
   6  13   0   11.78    1.05
   6  13   1    6.20    1.00
   6  13   1    3.88    0.66
   6  13   1    5.84    1.00
   6  13   1    4.96    0.71
   6  13   2    0.62    0.44
   6  13   2    0.85    0.71
   6  13   2    0.52    0.47
   6  13   3   63.16    3.62
   6  13   3   66.90    4.00
   6  13   3   62.47    3.74
   6  13   4    0.85    0.44
   6  13   4    0.51    0.74
   6  13   5   53.65    3.26
   6  13   5   42.10    3.24
   6  13   6   20.09    1.71
   6  13   6   20.16    1.56
   6  13   6   15.32    1.73
   6  13   7    5.33    0.94
   6  13   7    5.04    1.07
   6  13   7    6.41    0.86
   6  13   8    8.61    1.25
   6  13   8    7.58    1.06
   6  13   8    8.88    0.95
   6  13   8    9.04    1.26
   6  13   9   12.08    1.43
   6  13   9   11.92    1.27
   6  13   9   14.20    1.19
   6  13   9   12.71    1.48
   6  13  10   17.70    1.72
   6  13  10   16.36    1.48
   6  13  10   20.42    1.45
   6  13  10   17.60    1.72
   6  13  11    0.75    0.72
   6  13  11    0.14    0.46
   6  13  11    0.36    0.69
   6  13  11    0.08    0.36
   6  13  12    5.22    0.96
   6  13  12    4.44    0.67
   6  13  12    5.59    0.98
   6  13  13   19.58    1.64
   6  13  13   16.18    1.60
   6  13  14    3.31    0.77
   6  13  14    2.86    0.75
   6  13  15   11.80    1.16
   6  13  15   11.37    1.17
   6  13  16    0.60    0.44
   6  13  16    0.68    0.43
   6  13  17    6.27    0.68
   6  13  17    4.80    0.67
   6  14  -1   13.51    1.09
   6  14   0    1.83    0.52
   6  14   1    0.61    0.47
   6  14   2   23.99    1.76
   6  14   2   24.97    1.78
   6  14   3   -0.63    0.56
   6  14   3   -0.26    0.35
   6  14   4   42.22    2.82
   6  14   4   45.63    2.84
   6  14   4   47.53    2.70
   6  14   5   31.66    2.22
   6  14   5   32.60    2.21
   6  14   6   41.29    2.72
   6  14   6   45.02    2.61
   6  14   7    0.44    0.54
   6  14   7    1.13    0.44
   6  14   8    5.04    0.77
   6  14   8    5.80    0.68
   6  14   8    3.98    0.82
   6  14   9   12.20    1.16
   6  14   9   11.88    1.29
   6  14  10   -0.11    0.42
   6  14  10    0.25    0.53
   6  14  11    9.18    0.84
   6  14  11    8.35    1.02
   6  14  12    6.68    0.88
   6  14  13   -0.08    0.44
   6  14  14   13.36    1.11
   6  15   3    5.53    0.60
   6  15   4    2.57    0.42
   6  15   4    1.78    0.43
   6  15   5   -0.11    0.36
   6  15   5    0.85    0.36
   6  15   6   22.82    1.54
   6  15   6   23.21    1.53
   6  15   7    8.66    0.84
   6  15   7   10.00    0.83
   6  15   8    4.14    0.61
   6  15   8    4.62    0.56
   6  15   9    0.14    0.35
   6  15  10    4.97    0.63
  -7   9   4   -0.06    0.21
  -7   9   3    5.76    0.55
  -7   9   2   16.64    1.12
  -7   9   1    0.94    0.32
  -7   9  -1   -0.23    0.21
  -7   9  -2   13.57    0.93
  -7   9  -2   16.22    1.02
  -7   9  -3   14.93    0.95
  -7   9  -3   14.70    0.97
  -7   9  -4    1.19    0.26
  -7   9  -5    8.55    0.62
   7  -8  -9    0.15    0.20
  -7   8   8   25.07    1.40
  -7   8   8   19.00    1.28
  -7   8   7    0.26    0.27
  -7   8   7    0.05    0.22
  -7   8   6    8.75    0.73
  -7   8   6    7.68    0.64
  -7   8   5    4.42    0.55
  -7   8   5    4.31    0.53
  -7   8   4    6.39    0.64
   7  -8  -4    5.82    0.67
  -7   8   4    5.79    0.64
  -7   8   3   35.23    2.09
   7  -8  -3   34.80    2.23
  -7   8   3   37.27    2.19
  -7   8   2    0.60    0.38
  -7   8   1   42.67    2.53
  -7   8   1   51.13    2.74
  -7   8   0    5.15    0.66
   7  -8   0    5.55    0.69
  -7   8   0    3.73    0.51
   7  -8   1    7.40    0.80
  -7   8  -1    7.10    0.68
   7  -8   1    6.22    0.65
   7  -8   2    9.02    0.91
  -7   8  -2    9.56    0.87
  -7   8  -2    9.99    0.84
   7  -8   2    8.64    0.75
   7  -8   3    1.90    0.44
  -7   8  -3    2.28    0.45
   7  -8   3    1.16    0.30
  -7   8  -3    1.76    0.41
   7  -8   4   58.40    3.46
  -7   8  -4   62.30    3.39
  -7   8  -4   64.72    3.41
  -7   8  -5    0.22    0.26
  -7   8  -5    0.06    0.32
  -7   8  -6   11.74    0.90
  -7   8  -7    3.87    0.49
  -7   8  -9   54.18    2.84
  -7   7  11   14.27    0.94
  -7   7  11   12.03    0.91
  -7   7  10    0.15    0.28
   7  -7 -10   -0.05    0.26
  -7   7  10   -0.11    0.28
  -7   7   9   96.38    4.92
  -7   7   9   88.66    4.85
  -7   7   8    0.15    0.38
  -7   7   7   33.82    1.99
  -7   7   7   26.98    1.76
  -7   7   7   30.88    1.93
  -7   7   6   20.00    1.43
   7  -7  -6   17.02    1.34
  -7   7   6   18.07    1.29
  -7   7   5    0.10    0.39
   7  -7  -5    0.49    0.37
  -7   7   5    0.25    0.34
  -7   7   4  100.56    5.54
   7  -7  -4  103.87    5.61
  -7   7   4  102.59    5.53
  -7   7   3    0.24    0.40
  -7   7   3   -0.05    0.42
   7  -7  -3    0.23    0.40
  -7   7   2   58.75    3.52
   7  -7  -2   60.63    3.70
  -7   7   2   63.32    3.64
   7  -7  -2   64.59    3.60
  -7   7   1   14.44    1.20
  -7   7   1   15.54    1.33
   7  -7  -1   15.66    1.27
   7  -7   0   11.34    1.17
  -7   7   0   11.17    1.12
   7  -7   0   11.67    1.07
   7  -7   1   59.59    3.53
   7  -7   1   56.46    3.35
   7  -7   2    8.32    0.98
  -7   7  -2    7.88    0.95
   7  -7   2    7.81    0.85
   7  -7   3   73.98    4.34
  -7   7  -3   81.09    4.30
   7  -7   3   72.46    4.16
   7  -7   4    1.43    0.51
  -7   7  -4    1.09    0.45
  -7   7  -4    0.83    0.38
   7  -7   4    1.19    0.42
   7  -7   5   41.78    2.70
  -7   7  -5   48.46    2.68
  -7   7  -5   42.32    2.55
   7  -7   5   45.28    2.60
  -7   7  -6    7.87    0.76
   7  -7   6    6.86    0.77
  -7   7  -6    7.06    0.73
   7  -7   6    7.83    0.73
  -7   7  -7    9.84    0.88
   7  -7   7   10.54    0.83
   7  -7   8   76.19    4.06
  -7   7  -8   79.27    4.16
  -7   7  -9    1.36    0.37
  -7   7  -9    0.98    0.37
  -7   7 -10   92.51    4.83
  -7   7 -10   93.44    4.82
  -7   7 -11   -0.22    0.19
  -7   7 -11    0.02    0.23
  -7   6  13   10.37    0.75
  -7   6  12   28.58    1.50
  -7   6  12   30.55    1.55
  -7   6  11    1.17    0.36
   7  -6 -11    1.04    0.30
  -7   6  10   49.30    2.86
  -7   6   9    0.05    0.41
  -7   6   8   29.29    2.01
   7  -6  -7   43.65    2.72
  -7   6   7   47.26    2.68
   7  -6  -6    0.05    0.37
  -7   6   6   -0.05    0.34
  -7   6   5   15.15    1.34
   7  -6  -5   13.18    1.26
  -7   6   5   12.50    1.17
  -7   6   4   10.68    1.18
   7  -6  -4   11.53    1.18
  -7   6   4   10.79    1.10
   7  -6  -4   12.32    1.17
  -7   6   3   99.72    5.64
   7  -6  -3  103.70    5.73
  -7   6   3  101.99    5.64
   7  -6  -3   99.16    5.60
  -7   6   2   32.80    2.24
   7  -6  -2   30.23    2.30
  -7   6   2   31.98    2.26
   7  -6  -2   32.69    2.23
  -7   6   1   18.42    1.58
  -7   6   1   22.19    1.76
   7  -6  -1   19.47    1.61
  -7   6   0  125.96    6.89
   7  -6   0  128.32    7.08
  -7   6   0  131.72    7.07
   7  -6   0  128.18    6.94
  -7   6  -1    6.32    0.82
   7  -6   1    6.42    0.95
   7  -6   1    6.48    0.87
   7  -6   2   87.20    5.04
   7  -6   2   85.79    4.86
   7  -6   3   13.56    1.38
  -7   6  -3   17.19    1.44
   7  -6   3   14.12    1.28
  -7   6  -4    0.43    0.42
   7  -6   4    0.34    0.44
  -7   6  -4    1.42    0.56
   7  -6   4    1.03    0.49
  -7   6  -5   31.02    2.16
   7  -6   5   34.52    2.31
  -7   6  -5   34.93    2.27
   7  -6   5   33.06    2.19
   7  -6   6    4.30    0.67
  -7   6  -6    4.93    0.72
   7  -6   6    3.48    0.65
   7  -6   7   66.39    3.92
  -7   6  -7   70.11    3.90
   7  -6   7   71.95    3.91
   7  -6   8    2.45    0.49
   7  -6   9   96.41    5.13
  -7   6 -10    7.75    0.78
  -7   6 -10    6.38    0.75
   7  -6  10    6.49    0.66
  -7   6 -11   14.80    1.03
  -7   6 -11   14.64    1.08
   7  -6  11   12.05    0.95
  -7   6 -12   26.28    1.61
  -7   6 -12   30.15    1.74
  -7   6 -13    1.32    0.33
   7  -5 -14    0.08    0.20
  -7   5  14    0.16    0.23
  -7   5  13   28.30    1.64
  -7   5  13   32.74    1.75
  -7   5  12    2.72    0.45
   7  -5 -12    1.73    0.37
   7  -5 -12    1.75    0.47
  -7   5  12    1.80    0.48
  -7   5  11   63.15    3.46
   7  -5 -11   56.55    3.43
  -7   5  11   64.69    3.51
  -7   5  10    0.58    0.48
  -7   5  10    0.94    0.46
  -7   5   9   19.25    1.53
  -7   5   8   21.56    1.72
  -7   5   7    3.14    0.77
   7  -5  -7    3.74    0.61
  -7   5   7    2.71    0.54
   7  -5  -6    3.74    0.69
  -7   5   6    3.70    0.64
  -7   5   5   19.69    1.57
   7  -5  -5   19.14    1.57
   7  -5  -5   16.31    1.54
  -7   5   4   49.84    3.11
   7  -5  -4   43.92    3.02
  -7   5   4   44.71    2.96
   7  -5  -4   44.57    2.95
  -7   5   3    0.15    0.55
  -7   5   3    0.43    0.54
   7  -5  -3    0.08    0.53
   7  -5  -3    0.40    0.53
  -7   5   2    3.26    0.79
   7  -5  -2    3.05    0.77
  -7   5   2    3.74    0.81
   7  -5  -2    2.93    0.66
  -7   5   1  100.90    5.83
  -7   5   1  102.47    5.88
  -7   5   1   91.56    8.36
   7  -5  -1  107.16    5.78
   7  -5  -1  101.25    8.25
  -7   5   0    9.23    2.07
  -7   5   0    8.89    1.08
   7  -5   0   10.11    1.21
  -7   5   0    9.71    1.17
   7  -5   0   10.45    1.12
  -7   5   0    9.12    2.37
  -7   5  -1   67.35    4.04
   7  -5   1   68.28    4.15
  -7   5  -1   69.88    4.18
   7  -5   1   55.66    6.04
   7  -5   1   69.18    4.04
  -7   5  -1   57.46    6.17
  -7   5  -2    0.99    0.52
  -7   5  -2    0.49    0.40
   7  -5   2    0.39    0.53
   7  -5   2   -0.34    0.99
  -7   5  -2    0.37    1.01
   7  -5   2    0.46    0.52
  -7   5  -3    3.75    0.66
  -7   5  -3    3.28    1.62
  -7   5  -3    5.08    0.74
   7  -5   3    5.38    0.89
  -7   5  -3    5.02    0.89
   7  -5   3    4.97    1.59
   7  -5   3    6.15    0.83
  -7   5  -4    1.36    0.53
   7  -5   4    2.13    0.65
  -7   5  -4    1.32    0.64
   7  -5   4    1.13    0.51
   7  -5   5    0.18    0.44
  -7   5  -5    0.76    0.52
   7  -5   5    0.42    0.50
  -7   5  -5    0.63    0.54
   7  -5   5    0.37    0.45
  -7   5  -6   98.65    5.33
   7  -5   6   96.95    5.36
  -7   5  -6   97.81    5.39
   7  -5   6   94.01    5.28
   7  -5   6   89.26    5.23
   7  -5   7    5.69    0.78
  -7   5  -7    7.44    0.92
   7  -5   7    5.76    0.80
  -7   5  -7    6.02    0.82
   7  -5   7    6.09    0.81
  -7   5  -8   55.35    3.19
   7  -5   8   47.87    3.01
  -7   5  -8   48.42    3.02
   7  -5   8   51.44    3.08
   7  -5   8   50.27    3.01
  -7   5  -9   10.05    1.09
   7  -5   9    9.32    0.95
   7  -5   9   10.05    0.95
  -7   5 -10   12.82    1.17
   7  -5  10   11.43    1.02
   7  -5  10    9.83    0.94
   7  -5  11  150.60    7.53
   7  -5  11  139.72    7.44
   7  -5  12    2.19    0.41
  -7   5 -12    2.59    0.46
   7  -5  12    3.00    0.48
  -7   5 -13   36.51    2.17
   7  -5  13   33.83    2.04
   7  -5  14    2.22    0.33
  -7   5 -15   19.49    1.22
   7  -4 -15    1.43    0.27
   7  -4 -15    1.25    0.28
   7  -4 -14   37.92    2.33
  -7   4  14   41.92    2.30
  -7   4  13    0.13    0.25
   7  -4 -13    0.67    0.41
  -7   4  13    0.67    0.37
  -7   4  12   75.75    3.95
   7  -4 -12   66.79    3.90
   7  -4 -12   66.01    4.04
  -7   4  12   79.22    4.04
  -7   4  11    0.28    0.38
   7  -4 -11    0.14    0.42
  -7   4  11    0.10    0.45
  -7   4  10   22.77    1.74
  -7   4   9   71.55    4.20
  -7   4   8    1.54    0.61
   7  -4  -8    0.74    0.38
  -7   4   7   59.72    3.52
   7  -4  -7   51.65    3.21
  -7   4   7   49.91    3.15
  -7   4   6    2.38    0.79
   7  -4  -6    0.78    0.55
  -7   4   6    1.86    0.55
   7  -4  -6    2.05    0.61
  -7   4   5   80.23    7.64
   7  -4  -5   85.28    4.92
  -7   4   5   80.64    4.83
   7  -4  -5   90.24    4.93
   7  -4  -5   77.27    6.85
   7  -4  -4   30.26    2.18
  -7   4   4   25.27    2.04
   7  -4  -4   25.95    2.02
   7  -4  -4   31.11    3.82
  -7   4   4   27.61    3.39
  -7   4   4   20.32    3.73
  -7   4   3    6.45    1.70
  -7   4   3    3.98    0.88
   7  -4  -3    3.20    0.77
  -7   4   3    5.16    0.88
   7  -4  -3    7.39    2.03
   7  -4  -3    3.04    0.70
  -7   4   3    5.16    1.93
  -7   4   2   49.66    3.27
   7  -4  -2   50.23    3.25
  -7   4   2   46.07    3.18
  -7   4   2   51.23    5.54
   7  -4  -2   50.64    3.14
   7  -4  -2   42.93    4.91
  -7   4   2   41.81    4.55
  -7   4   1   -0.58    1.16
  -7   4   1    0.48    0.59
  -7   4   1   -0.39    1.38
  -7   4   1   -0.31    0.56
   7  -4  -1    0.35    1.07
   7  -4  -1    0.07    0.49
  -7   4   0   90.57    5.37
  -7   4   0   99.58    8.13
   7  -4   0   95.26    5.32
  -7   4   0   94.49    7.37
  -7   4   0   91.13    5.41
  -7   4  -1    1.57    0.65
   7  -4   1    2.68    0.78
  -7   4  -1    1.75    0.73
   7  -4   1    3.42    1.50
   7  -4   1    2.15    0.63
  -7   4  -1    1.86    1.39
  -7   4  -2  167.76    9.37
  -7   4  -2  167.23    9.18
   7  -4   2  194.60    9.55
   7  -4   2  173.42   12.06
   7  -4   2  182.80    9.38
  -7   4  -2  191.47   12.54
  -7   4  -3   89.65    5.28
  -7   4  -3   92.21    5.21
   7  -4   3   95.11    5.43
  -7   4  -3   96.02    5.46
   7  -4   3   99.58    7.79
   7  -4   3  101.18    5.36
  -7   4  -3   88.66    7.23
  -7   4  -3   90.87    7.84
   7  -4   3   89.47    5.27
  -7   4  -4   21.33    3.21
  -7   4  -4   25.14    1.97
  -7   4  -4   29.52    3.94
  -7   4  -4   31.20    2.06
   7  -4   4   32.19    2.22
  -7   4  -4   28.58    2.23
   7  -4   4   26.95    2.05
   7  -4   4   25.76    3.53
   7  -4   4   28.11    2.08
  -7   4  -5   85.73    5.14
  -7   4  -5   91.07    5.04
   7  -4   5   94.17    5.16
  -7   4  -5   77.68    7.22
   7  -4   5   86.95    5.03
   7  -4   5   81.31    7.13
  -7   4  -5   87.70    6.99
   7  -4   5   89.24    5.04
  -7   4  -6   10.78    2.14
  -7   4  -6   13.70    1.28
   7  -4   6   12.88    1.26
  -7   4  -6   10.77    1.26
   7  -4   6    8.67    2.08
   7  -4   6   11.54    1.20
   7  -4   6   12.39    1.20
  -7   4  -7   76.66    4.38
   7  -4   7   75.83    4.35
  -7   4  -7   69.97    4.36
   7  -4   7   76.62    4.35
   7  -4   7   73.48    4.31
  -7   4  -8   24.49    1.85
   7  -4   8   22.46    1.69
  -7   4  -8   20.98    1.71
   7  -4   8   23.67    1.75
   7  -4   8   20.40    1.67
  -7   4  -9   22.39    1.79
  -7   4  -9   21.84    1.65
   7  -4   9   21.59    1.69
   7  -4   9   21.15    1.64
  -7   4 -10  310.78   14.98
   7  -4  10  292.46   14.85
   7  -4  10  277.94   14.79
   7  -4  11    0.36    0.43
  -7   4 -11   -0.31    0.56
   7  -4  11    0.54    0.47
  -7   4 -12  105.66    5.48
   7  -4  12   99.97    5.33
   7  -4  12   90.90    5.24
   7  -4  13    4.74    0.59
  -7   4 -13    3.13    0.52
   7  -4  13    4.33    0.61
   7  -4  14   26.44    1.74
   7  -4  14   27.64    1.69
  -7   4 -15   28.56    1.78
   7  -4  15   27.62    1.71
  -7   4 -16    2.47    0.39
   7  -4  16    2.84    0.35
   7  -3 -15   24.09    1.43
   7  -3 -15   24.24    1.45
   7  -3 -14    0.40    0.36
  -7   3  14    0.18    0.29
  -7   3  13    1.07    0.33
   7  -3 -13    0.69    0.30
   7  -3 -13    0.61    0.45
  -7   3  13    0.75    0.42
  -7   3  12   38.63    2.33
   7  -3 -12   36.67    2.32
   7  -3 -12   36.51    2.52
  -7   3  12   40.11    2.43
  -7   3  11   16.11    1.35
   7  -3 -11   14.66    1.33
  -7   3  11   19.17    1.45
  -7   3  10   44.57    2.85
   7  -3 -10   44.21    2.90
  -7   3   9    1.44    0.68
  -7   3   8  230.98   12.10
  -7   3   7    0.40    0.65
  -7   3   7    0.22    0.42
   7  -3  -7    0.99    0.47
  -7   3   6   63.56    4.05
   7  -3  -6   64.40    3.82
  -7   3   6   61.72    3.77
   7  -3  -6   62.40    5.59
  -7   3   5  188.23    9.73
   7  -3  -5  186.68    9.56
   7  -3  -5  156.97   11.68
  -7   3   5  163.05   11.26
  -7   3   5  176.46    9.50
  -7   3   4    0.26    0.88
  -7   3   4    0.42    0.67
   7  -3  -4   -0.44    0.53
  -7   3   4   -0.07    0.58
   7  -3  -4   -0.31    0.92
  -7   3   3  126.62   10.05
   7  -3  -3  138.80    7.28
  -7   3   3  130.45    7.20
   7  -3  -3  122.55    9.42
  -7   3   3  119.62    8.90
  -7   3   2    0.53    0.95
  -7   3   2    0.33    0.57
   7  -3  -2   -0.30    0.50
   7  -3  -2   -0.65    1.31
   7  -3  -2    0.72    0.55
  -7   3   2   -0.38    1.10
  -7   3   1  192.45   10.38
   7  -3  -1  201.23   10.32
  -7   3   1  190.08   13.05
   7  -3  -1  191.36   10.18
   7  -3  -1  177.20   12.71
  -7   3   1  205.04   12.38
  -7   3   0   48.90    3.20
  -7   3   0   48.92    5.24
   7  -3   0   47.39    3.05
  -7   3   0   48.38    4.64
   7  -3   1  112.97    6.11
  -7   3  -1  106.12    8.44
   7  -3   1  105.35    5.96
   7  -3   1   92.84    8.02
   7  -3   1  109.74    6.00
   7  -3   2  327.69   16.24
   7  -3   2  309.63   16.10
   7  -3   2  287.61   18.64
  -7   3  -2  330.95   19.16
   7  -3   2  317.11   16.13
   7  -3   3    2.20    0.70
  -7   3  -3    3.50    1.42
   7  -3   3    2.17    0.74
  -7   3  -3    2.68    1.47
   7  -3   3    0.94    1.30
   7  -3   3    2.37    0.66
  -7   3  -4  608.32   36.99
   7  -3   4  699.85   34.51
   7  -3   4  700.86   34.46
   7  -3   4  686.24   37.13
  -7   3  -4  624.74   36.50
   7  -3   4  721.43   34.49
   7  -3   5    1.47    0.63
  -7   3  -5    1.61    1.18
  -7   3  -5    0.85    0.52
  -7   3  -5   -0.33    1.18
   7  -3   5    0.49    0.51
   7  -3   5    0.90    0.98
   7  -3   5    0.67    0.51
   7  -3   6   34.33    2.30
  -7   3  -6   28.73    2.28
  -7   3  -6   30.20    3.83
   7  -3   6   32.43    2.25
   7  -3   6   27.54    3.54
  -7   3  -6   29.74    3.56
   7  -3   6   32.47    2.26
  -7   3  -7    8.75    1.94
   7  -3   7   13.44    1.23
  -7   3  -7   12.20    1.26
  -7   3  -7   10.77    1.24
   7  -3   7   12.42    2.28
   7  -3   7   12.69    1.24
   7  -3   7   11.37    1.19
  -7   3  -8   14.72    2.53
   7  -3   8   21.80    1.67
  -7   3  -8   21.95    1.79
  -7   3  -8   21.58    1.77
   7  -3   8   20.03    2.87
   7  -3   8   21.74    1.74
   7  -3   8   21.90    1.72
  -7   3  -9   51.56    3.27
   7  -3   9   50.95    3.08
  -7   3  -9   45.68    3.12
   7  -3   9   50.84    3.18
   7  -3   9   54.24    3.20
   7  -3  10    7.76    0.99
  -7   3 -10   11.36    1.22
  -7   3 -10    9.10    1.00
   7  -3  10   11.20    1.16
  -7   3 -11  392.49   18.99
   7  -3  11  364.31   18.84
   7  -3  11  367.40   18.82
   7  -3  12    0.63    0.47
  -7   3 -12    0.89    0.43
   7  -3  12    0.78    0.50
  -7   3 -13   39.87    2.59
   7  -3  13   44.93    2.75
   7  -3  13   47.15    2.74
  -7   3 -14   44.14    2.67
  -7   3 -14   37.50    2.42
   7  -3  14   41.74    2.55
   7  -3  14   41.32    2.51
   7  -3  15    0.60    0.37
  -7   3 -15    0.38    0.47
   7  -3  15    0.53    0.42
  -7   3 -16   41.45    2.50
   7  -3  16   45.49    2.51
   7  -3  16   41.73    2.44
  -7   3 -17    1.67    0.32
  -7   3 -17    1.82    0.35
   7  -3  17    1.88    0.35
   7  -2 -16   34.58    1.95
   7  -2 -15    0.85    0.32
   7  -2 -14    1.59    0.48
  -7   2  14    1.17    0.36
   7  -2 -13    9.57    0.81
   7  -2 -13    9.52    1.04
  -7   2  13    8.84    0.89
  -7   2  12    3.82    0.57
   7  -2 -12    2.91    0.58
   7  -2 -12    5.11    0.82
  -7   2  12    3.75    0.65
  -7   2  11   32.42    2.16
   7  -2 -11   32.57    2.19
   7  -2 -11   29.23    2.30
  -7   2  11   32.71    2.21
  -7   2  10    1.45    0.55
   7  -2 -10    1.69    0.66
  -7   2   9  147.59    8.01
  -7   2   8    5.45    0.92
  -7   2   7   82.73    4.67
   7  -2  -7   73.12    4.27
  -7   2   6   25.63    2.07
   7  -2  -6   24.37    1.82
  -7   2   6   22.45    1.78
   7  -2  -6   23.71    1.83
   7  -2  -6   24.18    3.15
  -7   2   5    3.93    1.25
  -7   2   5    1.98    0.72
   7  -2  -5    3.31    0.68
   7  -2  -5    2.24    1.05
   7  -2  -5    2.49    0.64
  -7   2   4  105.21    5.76
   7  -2  -4  100.97    5.57
   7  -2  -4   97.62    5.50
   7  -2  -4  104.10    7.80
   7  -2  -3   -0.07    0.50
   7  -2  -3    0.30    1.02
   7  -2  -3    0.19    0.48
  -7   2   2   76.32    6.59
   7  -2  -2   72.06    4.12
   7  -2  -2   64.40    3.97
   7  -2  -2   64.49    5.93
   7  -2  -1    2.53    0.66
   7  -2  -1    3.00    1.28
  -7   2   1    1.32    1.28
  -7   2   0   22.86    3.29
   7  -2   1  125.40    6.56
  -7   2  -1  109.84    8.56
   7  -2   1  108.27    8.47
   7  -2   1  115.66    6.45
   7  -2   2    0.45    0.53
   7  -2   2   -0.20    0.56
   7  -2   2   -0.58    1.17
  -7   2  -2    0.30    1.08
   7  -2   3  537.50   26.09
   7  -2   3  494.00   28.33
  -7   2  -3  501.60   28.49
   7  -2   3  516.30   26.04
   7  -2   4    2.40    0.66
   7  -2   4    1.79    0.60
   7  -2   4    2.56    1.28
  -7   2  -4    0.89    1.02
   7  -2   4    2.30    0.60
  -7   2  -5   37.79    4.08
   7  -2   5   34.61    2.36
   7  -2   5   35.12    2.37
   7  -2   5   39.33    4.03
   7  -2   5   32.37    2.35
   7  -2   6  151.36    7.97
  -7   2  -6  132.68    9.97
   7  -2   6  149.25    7.97
   7  -2   6  145.00    9.99
   7  -2   6  150.06    7.97
   7  -2   7   35.72    2.38
   7  -2   7   34.77    3.82
  -7   2  -7   25.76    3.31
   7  -2   7   33.64    2.33
   7  -2   7   35.49    2.39
  -7   2  -8   14.91    2.50
   7  -2   8   18.78    1.51
   7  -2   8   18.15    2.65
   7  -2   8   18.97    1.57
   7  -2   8   19.85    1.61
   7  -2   9   53.16    3.09
  -7   2  -9   45.75    3.14
   7  -2   9   53.94    3.23
   7  -2   9   50.98    3.17
   7  -2  10  146.97    7.42
   7  -2  10  143.52    7.38
   7  -2  11    5.87    0.86
  -7   2 -11    6.53    0.79
   7  -2  11    4.17    1.40
   7  -2  11    4.11    0.81
   7  -2  12    2.89    0.68
  -7   2 -12    3.47    0.65
   7  -2  12    3.88    0.75
  -7   2 -13  238.86   11.79
  -7   2 -13  210.27   11.53
   7  -2  13  234.53   11.71
   7  -2  13  225.26   11.65
   7  -2  14    4.22    0.69
  -7   2 -14    3.45    0.77
   7  -2  14    2.35    0.63
  -7   2 -14    2.48    0.61
  -7   2 -15   90.45    4.79
  -7   2 -15   78.56    4.61
   7  -2  15   86.01    4.71
   7  -2  15   83.47    4.67
   7  -2  16    0.49    0.37
  -7   2 -16    0.08    0.40
  -7   2 -16   -0.28    0.43
   7  -2  16   -0.43    0.45
  -7   2 -17   30.83    1.93
  -7   2 -17   28.52    1.87
   7  -2  17   31.39    1.95
   7  -2  17   33.11    1.94
   7  -2  18   13.20    0.94
   7  -2  18   11.79    0.88
   7  -1 -16    2.29    0.38
   7  -1 -16    1.91    0.37
   7  -1 -15   75.45    4.11
  -7   1  14    0.09    0.27
   7  -1 -13   34.26    2.07
   7  -1 -13   40.03    2.45
   7  -1 -13   31.42    2.13
  -7   1  13   34.13    2.16
   7  -1 -12   74.07    3.96
   7  -1 -12   76.34    4.24
  -7   1  12   71.15    3.97
  -7   1  11    1.08    0.48
   7  -1 -11    0.95    0.51
   7  -1 -11    1.51    0.64
  -7   1  11    0.81    0.54
   7  -1 -11    1.58    0.55
  -7   1  10   74.62    4.45
   7  -1 -10   85.42    4.58
   7  -1 -10   83.69    4.69
   7  -1 -10   69.09    4.35
  -7   1   9    0.43    0.56
   7  -1  -9    0.45    0.51
   7  -1  -9   -0.34    0.52
  -7   1   8   68.39    4.08
   7  -1  -8   51.19    5.89
   7  -1  -7  121.48    6.84
   7  -1  -7   98.50    9.38
  -7   1   6   26.49    2.09
   7  -1  -6   25.01    1.82
   7  -1  -6   24.03    3.79
   7  -1  -6   25.13    1.89
   7  -1  -6   20.52    2.90
   7  -1  -5   79.32    4.49
   7  -1  -5   76.48    4.48
   7  -1  -5   76.24    6.21
   7  -1  -4    1.12    0.57
   7  -1  -4    0.88    0.49
   7  -1  -4    0.79    0.91
   7  -1  -4    0.85    0.48
   7  -1  -3  205.04   10.31
   7  -1  -3  192.45   10.24
   7  -1  -3  199.90   12.39
   7  -1  -3  192.73   10.26
   7  -1  -2    9.52    1.08
   7  -1  -2   12.42    2.22
   7  -1  -2    9.59    1.04
   7  -1  -2   10.41    1.10
   7  -1  -1   27.78    2.07
   7  -1  -1   29.62    2.09
  -7   1   1   30.46    3.60
   7  -1  -1   29.32    2.02
   7  -1  -1   31.87    3.58
   7  -1   0   48.52    3.04
  -7   1   0   44.21    4.53
   7  -1   0   48.60    2.98
   7  -1   0   50.79    4.74
   7  -1   1   11.38    1.22
  -7   1  -1   13.00    2.23
   7  -1   1   13.59    1.19
   7  -1   2  266.16   14.33
   7  -1   2  302.76   14.38
   7  -1   2  275.66   14.26
  -7   1  -2  268.85   16.32
   7  -1   2  287.64   16.58
  -7   1  -3    4.13    1.31
   7  -1   3    2.84    0.65
   7  -1   3    1.58    1.09
   7  -1   3    2.63    0.58
   7  -1   4   63.98    3.84
   7  -1   4   69.93    5.65
   7  -1   4   65.35    3.86
  -7   1  -4   64.85    5.49
  -7   1  -5  209.29   13.53
   7  -1   5  230.77   11.66
   7  -1   5  221.38   13.69
   7  -1   5  225.40   11.66
   7  -1   6    0.77    0.47
   7  -1   6    0.85    0.51
   7  -1   6    1.03    0.92
  -7   1  -6    0.80    0.78
   7  -1   7   98.97    5.57
   7  -1   7   94.74    7.29
   7  -1   7  105.39    5.67
   7  -1   8   16.71    1.33
   7  -1   8   12.35    2.16
   7  -1   8   12.33    1.27
   7  -1   9  239.53   11.95
   7  -1   9  232.82   12.06
   7  -1   9  212.42   13.72
   7  -1   9  228.76   12.04
   7  -1  10  131.82    7.13
   7  -1  10  134.37    7.33
   7  -1  10  138.11    7.32
   7  -1  11    0.27    0.53
   7  -1  11    0.59    0.96
   7  -1  11   -0.14    0.50
   7  -1  12  114.01    8.64
   7  -1  12  122.44    6.77
   7  -1  12  125.83    6.75
   7  -1  13    2.55    0.66
  -7   1 -13    2.97    0.74
  -7   1 -13    2.83    0.66
   7  -1  13    2.73    0.70
  -7   1 -14   68.63    4.06
  -7   1 -14   63.99    3.91
   7  -1  14   67.23    4.01
   7  -1  14   68.98    4.01
   7  -1  15    6.18    0.82
  -7   1 -15    5.98    0.90
  -7   1 -15    6.57    0.87
   7  -1  15    6.11    0.89
  -7   1 -16   78.68    4.52
  -7   1 -16   76.38    4.50
   7  -1  16   84.96    4.60
   7  -1  16   83.78    4.57
  -7   1 -17   36.90    2.33
  -7   1 -17   37.32    2.39
   7  -1  17   40.95    2.46
   7  -1  17   39.57    2.41
   7  -1  18    4.53    0.59
  -7   1 -18    4.50    0.63
   7  -1  18    5.20    0.64
  -7   1 -19   55.74    3.00
   7  -1  19   53.45    2.98
   7  -1  19   52.81    2.93
   7   0 -16   38.11    2.19
   7   0 -15    8.59    0.89
   7   0 -14   15.16    1.23
   7   0 -13   77.25    4.12
   7   0 -13   73.72    4.28
   7   0 -12   14.12    1.18
   7   0 -12   12.11    1.23
  -7   0  12   11.60    1.12
   7   0 -11  121.60    6.32
   7   0 -11  123.18    6.51
   7   0 -11  111.56    6.30
  -7   0  11  107.98    6.22
  -7   0  10    8.84    1.02
   7   0 -10    9.68    1.09
   7   0 -10    9.03    1.13
   7   0 -10   10.18    1.13
  -7   0   9   25.18    2.01
   7   0  -9   28.32    2.12
   7   0  -9   27.95    2.17
   7   0  -9   28.54    2.06
  -7   0   8   51.25    3.34
   7   0  -8   54.85    3.38
   7   0  -8   51.03    3.34
   7   0  -8   53.20    3.28
  -7   0   7   -0.08    0.58
   7   0  -7   -0.35    1.13
   7   0  -7    0.15    0.58
   7   0  -7    0.06    0.56
   7   0  -6  471.51   23.31
   7   0  -6  409.55   26.20
   7   0  -6  478.84   23.44
   7   0  -6  449.42   25.23
   7   0  -5    3.37    0.76
   7   0  -5    4.25    0.67
   7   0  -5    4.48    1.64
   7   0  -5    2.60    1.23
   7   0  -5    3.44    0.68
   7   0  -5    3.66    0.76
   7   0  -4  339.91   17.51
   7   0  -4  361.88   17.53
   7   0  -4  344.90   19.48
   7   0  -4  329.18   17.53
   7   0  -4  359.46   17.64
   7   0  -3  119.37    6.37
   7   0  -3  122.04    8.27
   7   0  -3  118.24    6.36
   7   0  -3  113.35    6.44
   7   0  -2   17.25    1.51
   7   0  -2   17.29    1.43
   7   0  -2   13.66    2.26
   7   0  -2   17.33    1.39
  -7   0   2   15.43    2.43
   7   0  -1  137.18    7.68
   7   0  -1  154.96    7.66
  -7   0   1  134.60    9.35
   7   0  -1  140.10    7.56
   7   0  -1  145.16    9.52
   7   0   0    0.44    0.41
   7   0   0    0.26    0.51
  -7   0   0   -0.46    0.93
   7   0   0   -0.12    0.44
   7   0   0   -0.73    1.07
   7   0   0   -0.26    0.43
   7   0   1  123.95    7.28
  -7   0  -1  151.79    9.10
   7   0   1  135.71    7.15
   7   0   1  139.78    7.21
   7   0   2   72.27    4.00
   7   0   2   66.22    3.92
  -7   0  -2   71.66    5.49
   7   0   2   73.16    5.66
   7   0   2   66.23    3.94
   7   0   3  125.65    6.58
   7   0   3  118.86    6.50
   7   0   3  121.05    8.33
  -7   0  -3  120.02    8.12
   7   0   3  120.12    6.54
  -7   0  -4   67.54    5.81
   7   0   4   84.37    4.58
   7   0   4   77.85    4.53
   7   0   4   85.40    6.31
   7   0   4   82.91    4.58
   7   0   5    0.57    0.46
  -7   0  -5    0.92    0.89
   7   0   5    0.48    0.86
   7   0   5    0.69    0.43
   7   0   5    0.32    0.65
   7   0   6  153.56    8.20
   7   0   6  146.12    9.51
  -7   0  -6  156.86   10.00
   7   0   6  158.27    8.26
   7   0   6  167.05   10.19
   7   0   7    3.29    1.04
   7   0   7    1.82    0.52
   7   0   7    1.69    1.00
   7   0   7    1.24    0.52
   7   0   8   18.03    1.59
   7   0   8   20.14    2.64
   7   0   8   22.16    1.59
   7   0   9   29.34    3.27
   7   0   9   28.78    1.99
   7   0   9   29.45    2.12
   7   0  10   49.05    2.95
   7   0  10   48.43    3.11
   7   0  11  167.84   11.32
   7   0  11  171.82    9.09
   7   0  12    3.10    0.74
   7   0  12    2.95    1.30
   7   0  13   51.08    4.77
   7   0  13   45.23    3.00
  -7   0 -14    9.59    1.13
   7   0  14    8.22    1.09
   7   0  14   10.16    1.13
  -7   0 -15   20.49    1.75
   7   0  15   24.63    1.85
   7   0  15   23.63    1.81
  -7   0 -16   39.36    2.67
  -7   0 -16   44.44    2.77
   7   0  16   44.07    2.79
   7   0  16   42.30    2.74
   7   0  17    4.60    0.72
  -7   0 -17    4.27    0.65
  -7   0 -17    4.01    0.72
   7   0  17    3.60    0.71
  -7   0 -18  164.83    8.38
   7   0  18  154.92    8.37
   7   0  18  163.14    8.36
   7   0  19    0.22    0.35
  -7   0 -19   -0.35    0.45
   7   0  19   -0.15    0.34
  -7   0 -20   46.71    2.59
   7   0  20   46.39    2.55
   7   0  20   44.26    2.51
   7   1 -16    9.24    0.76
   7   1 -15   18.54    1.36
   7   1 -14  136.05    6.79
   7   1 -14  119.22    6.67
   7   1 -13   -0.04    0.32
   7   1 -13   -0.31    0.64
   7   1 -12   52.92    3.14
   7   1 -12   54.05    3.29
   7   1 -11   37.50    2.47
   7   1 -11   37.33    2.62
   7   1 -11   37.92    2.55
   7   1 -10   46.89    3.01
   7   1 -10   46.74    3.12
   7   1 -10   48.78    3.09
  -7  -1   9   75.23    4.58
   7   1  -9   82.62    4.67
   7   1  -9   79.05    4.72
   7   1  -9   82.79    4.71
  -7  -1   8    2.41    0.68
   7   1  -8    2.13    1.26
   7   1  -8    1.50    0.62
   7   1  -8    2.77    0.73
   7   1  -8    2.51    0.73
   7   1  -7  223.42   11.57
   7   1  -7  229.06   11.59
   7   1  -7  221.32   11.54
   7   1  -6    5.95    1.87
   7   1  -6    6.69    0.95
   7   1  -6    6.96    0.96
   7   1  -6    5.73    1.42
   7   1  -6    5.97    0.98
   7   1  -5   41.68    4.39
   7   1  -5   40.81    2.67
   7   1  -5   40.75    2.80
   7   1  -5   42.57    2.75
   7   1  -5   40.90    2.80
   7   1  -5   43.29    4.01
   7   1  -5   47.38    2.87
   7   1  -4  100.83    5.48
   7   1  -4   89.53    7.42
   7   1  -4  101.69    5.53
   7   1  -4  101.01    5.55
   7   1  -4   97.57    5.63
   7   1  -4  102.92    7.12
   7   1  -4  101.95    5.66
   7   1  -3    1.58    0.63
   7   1  -3    1.28    0.47
   7   1  -3    1.81    0.99
   7   1  -3    1.44    0.49
   7   1  -3    0.80    0.41
   7   1  -3    0.97    0.59
   7   1  -2  299.00   14.74
   7   1  -2  290.29   14.51
   7   1  -2  299.88   14.58
   7   1  -2  281.64   14.54
   7   1  -2  268.83   14.47
   7   1  -2  281.58   16.40
   7   1  -2  292.65   14.72
   7   1  -1    5.30    0.83
   7   1  -1    3.70    0.63
   7   1  -1    4.91    0.67
   7   1  -1    4.74    1.33
   7   1  -1    3.55    0.60
   7   1  -1    4.77    0.80
  -7  -1   1    4.61    1.21
   7   1   0   19.86    1.65
   7   1   0   18.33    1.41
  -7  -1   0   19.08    2.37
   7   1   0   17.91    1.39
   7   1   0   19.16    2.51
   7   1   0   19.02    1.60
   7   1   0   19.24    1.45
   7   1   0   17.49    1.41
   7   1   1    4.88    0.84
  -7  -1  -1    5.66    1.29
   7   1   1    5.24    0.67
   7   1   1    5.91    0.71
   7   1   1    5.03    0.86
   7   1   2   17.87    1.41
   7   1   2   17.51    1.39
   7   1   2   17.75    1.38
  -7  -1  -2   17.31    2.23
   7   1   2   22.57    2.68
   7   1   2   17.84    1.58
   7   1   2   17.00    1.37
   7   1   3  125.20    6.62
   7   1   3  130.05    6.48
   7   1   3  104.48    7.05
   7   1   3  122.28    6.42
   7   1   3  114.32    6.38
   7   1   3  126.41    8.20
   7   1   3  113.41    6.61
  -7  -1  -3  122.19    7.82
   7   1   3  121.53    6.43
   7   1   4   23.88    1.92
  -7  -1  -4   22.89    2.67
   7   1   4   26.88    1.83
   7   1   4   27.78    1.83
   7   1   4   28.05    2.59
   7   1   4   24.72    1.79
   7   1   4   22.50    2.85
   7   1   4   25.43    1.80
   7   1   5  296.44   15.04
   7   1   5  294.82   14.88
   7   1   5  288.50   16.14
  -7  -1  -5  273.38   16.32
   7   1   5  292.05   14.89
   7   1   5  298.39   16.80
   7   1   5  296.06   14.89
   7   1   5  297.13   14.91
   7   1   6   26.60    2.03
   7   1   6   30.06    1.96
   7   1   6   29.71    1.98
   7   1   6   25.65    2.87
   7   1   6   26.84    1.95
   7   1   6   25.17    3.00
   7   1   6   30.39    2.00
   7   1   7  121.96    6.67
   7   1   7  125.47    6.53
   7   1   7  117.01    8.07
   7   1   7  119.24    6.57
   7   1   7  120.96    8.21
   7   1   7  121.09    6.58
   7   1   8  157.92    8.36
   7   1   8  151.17   10.14
   7   1   8  164.62    8.47
   7   1   8  153.03   10.03
   7   1   8  160.33    8.45
   7   1   9   16.51    1.36
   7   1   9   18.05    1.48
   7   1   9   16.56    2.31
   7   1  10   87.66    6.75
   7   1  10   80.25    4.74
   7   1  10   85.97    6.19
   7   1  11   24.27    3.22
   7   1  11   23.54    1.86
   7   1  12  189.61   11.92
   7   1  12  177.90    9.57
   7   1  13   14.19    2.45
   7   1  13   10.70    1.19
   7   1  13   11.01    1.23
   7   1  14   20.92    2.89
   7   1  14   15.94    1.51
  -7  -1 -15   51.97    3.31
   7   1  15   55.31    3.39
   7   1  16    1.99    0.64
  -7  -1 -16    2.12    0.58
  -7  -1 -17  214.14   11.63
   7   1  17  252.20   11.89
   7   1  18    3.09    0.64
  -7  -1 -18    2.37    0.63
  -7  -1 -19   34.99    2.25
   7   1  19   36.30    2.24
  -7  -1 -20   26.03    1.70
   7   1  20   24.57    1.65
   7   1  20   27.53    1.67
   7   1  21    0.30    0.23
  -7  -1 -21    0.56    0.29
   7   1  21    0.14    0.22
   7   2 -16    1.43    0.32
   7   2 -16    1.46    0.34
   7   2 -15  109.48    5.81
   7   2 -15  119.05    5.83
   7   2 -15  102.88    5.78
   7   2 -14    1.11    0.45
   7   2 -14    0.14    0.43
   7   2 -14    0.97    0.69
   7   2 -13   23.22    1.65
   7   2 -13   21.41    1.66
   7   2 -12   26.74    1.87
   7   2 -12   30.20    2.12
   7   2 -11   17.34    1.42
   7   2 -11   16.73    1.54
   7   2 -11   17.98    1.56
   7   2 -10  113.13    6.04
   7   2 -10  107.09    6.11
   7   2 -10  106.70    6.08
   7   2  -9    0.53    0.51
   7   2  -9    0.22    0.54
   7   2  -9    1.72    0.72
  -7  -2   8  178.23    9.91
   7   2  -8  194.35   10.00
   7   2  -8  194.48   10.04
   7   2  -8  193.04   10.05
   7   2  -7    1.16    0.56
   7   2  -7    0.91    0.56
   7   2  -7    0.22    0.67
   7   2  -6  116.52    6.37
   7   2  -6  111.09    6.32
   7   2  -6  118.67    6.45
   7   2  -5   94.92    7.72
   7   2  -5  118.20    6.38
   7   2  -5  118.13    6.33
   7   2  -5  113.17    6.42
   7   2  -5  121.78    6.45
   7   2  -5  112.10    7.72
   7   2  -4    8.18    1.09
   7   2  -4    8.19    1.67
   7   2  -4   10.42    0.97
   7   2  -4    9.98    1.05
   7   2  -4    8.73    0.97
   7   2  -4    9.88    1.75
   7   2  -4    8.29    0.88
   7   2  -4   11.94    1.21
   7   2  -3  120.34    6.60
   7   2  -3  111.13    8.16
   7   2  -3  123.21    6.65
   7   2  -3  131.66    6.71
   7   2  -3  129.03    6.91
   7   2  -3  114.78    8.14
   7   2  -3  130.06    6.88
   7   2  -2    3.34    0.77
   7   2  -2    3.05    0.57
   7   2  -2    2.98    1.15
   7   2  -2    3.50    0.59
   7   2  -2    3.87    0.65
   7   2  -2    2.89    0.56
   7   2  -2    2.59    1.10
   7   2  -2    3.88    0.57
   7   2  -2    2.69    0.74
   7   2  -1  273.53   13.66
   7   2  -1  266.78   13.43
   7   2  -1  264.48   13.40
   7   2  -1  257.77   13.38
   7   2  -1  248.93   13.44
   7   2  -1  278.70   13.69
   7   2  -1  278.78   15.32
   7   2   0   25.60    1.98
   7   2   0   26.45    1.80
   7   2   0   25.04    1.74
   7   2   0   24.51    1.71
   7   2   0   26.28    2.02
   7   2   0   26.03    2.89
   7   2   0   24.84    1.75
   7   2   1   59.17    3.40
   7   2   1   57.20    3.33
   7   2   1   58.16    3.64
   7   2   1   58.21    3.37
   7   2   2   64.33    3.65
   7   2   2   55.74    4.12
   7   2   2   57.24    3.31
   7   2   2   60.27    3.67
   7   2   2   53.67    3.31
   7   2   3   13.83    1.40
   7   2   3   15.70    1.25
   7   2   3   15.64    1.26
   7   2   3   14.59    1.83
   7   2   3   14.66    1.17
   7   2   3   13.42    1.15
   7   2   3   15.73    2.24
  -7  -2  -3   12.35    1.77
   7   2   3   12.66    1.42
   7   2   3   15.11    1.23
   7   2   4  654.55   30.12
   7   2   4  613.25   29.85
   7   2   4  609.70   29.86
   7   2   4  594.63   31.09
  -7  -2  -4  598.86   31.16
   7   2   4  582.44   29.78
   7   2   4  592.57   31.71
   7   2   4  579.32   29.81
   7   2   5    5.35    0.72
   7   2   5    5.92    0.88
   7   2   5    4.35    0.68
   7   2   5    4.31    0.67
   7   2   5    4.58    1.22
   7   2   5    3.38    0.61
   7   2   6  317.90   16.19
   7   2   6  319.05   15.96
   7   2   6  329.02   16.00
   7   2   6  294.07   17.43
   7   2   6  310.18   15.94
   7   2   6  338.62   17.92
   7   2   6  307.37   15.96
   7   2   7  241.32   13.64
   7   2   7  266.26   13.47
   7   2   7  279.65   13.52
   7   2   7  258.80   15.21
   7   2   7  263.97   13.51
   7   2   7  262.93   15.29
   7   2   7  271.70   13.54
   7   2   8    0.30    0.42
   7   2   8    1.46    0.62
   7   2   8    2.21    0.52
   7   2   8    1.66    1.10
   7   2   8    2.00    1.00
   7   2   8    1.29    0.48
   7   2   9   21.33    1.56
   7   2   9   24.35    3.00
   7   2   9   21.11    2.77
   7   2   9   19.73    1.59
   7   2   9   23.19    2.66
   7   2   9   18.31    1.59
   7   2  10   15.97    1.39
   7   2  10   13.61    2.11
   7   2  10   14.37    1.36
   7   2  11  531.17   26.35
   7   2  11  521.24   26.32
   7   2  12  190.88   12.24
   7   2  12  190.56   10.03
   7   2  12  188.54   10.01
   7   2  13   97.01    7.47
   7   2  13   95.60    5.49
   7   2  14  145.77   10.03
   7   2  14  144.17    7.88
   7   2  15    2.75    0.74
  -7  -2 -16  144.56    7.98
   7   2  16  163.13    8.26
  -7  -2 -17    0.44    0.39
   7   2  17    1.66    0.60
   7   2  18   44.80    2.89
   7   2  18   47.96    2.92
  -7  -2 -19    8.64    0.92
   7   2  19    8.03    0.89
   7   2  20    3.89    0.59
  -7  -2 -20    4.03    0.65
  -7  -2 -21   53.56    3.06
   7   2  21   57.37    3.05
   7   3 -16   60.65    3.20
   7   3 -15    3.28    0.53
   7   3 -15    5.13    0.60
   7   3 -15    4.42    0.66
   7   3 -14   61.76    3.60
   7   3 -14   69.14    3.65
   7   3 -14   60.74    3.65
   7   3 -13    2.84    0.46
   7   3 -13    3.31    0.62
   7   3 -13    4.10    0.68
   7   3 -13    3.39    0.95
   7   3 -12    0.53    0.36
   7   3 -12    0.65    0.47
   7   3 -12    1.01    0.77
   7   3 -11   48.27    2.88
   7   3 -11   45.98    2.96
   7   3 -11   44.59    3.00
   7   3 -10    4.26    0.72
   7   3 -10    3.70    0.78
   7   3 -10    4.36    0.88
   7   3  -9  127.20    6.83
   7   3  -9  126.00    6.91
   7   3  -9  123.66    6.94
   7   3  -8    1.58    0.58
   7   3  -8    1.47    0.61
   7   3  -8    1.42    0.71
   7   3  -7   84.36    4.82
   7   3  -7   85.69    4.84
   7   3  -7   81.67    4.91
   7   3  -6   20.79    1.66
   7   3  -6   20.28    1.64
   7   3  -6   20.02    1.79
   7   3  -5   11.06    1.01
   7   3  -5   12.36    1.19
   7   3  -5   12.47    1.19
   7   3  -5   13.55    1.38
   7   3  -5   11.36    1.89
   7   3  -5   11.57    1.28
   7   3  -4  420.67   22.75
   7   3  -4  390.18   20.88
   7   3  -4  419.98   21.07
   7   3  -4  427.50   21.04
   7   3  -4  453.59   21.27
   7   3  -4  425.82   21.19
   7   3  -3   50.63    4.17
   7   3  -3   43.07    2.70
   7   3  -3   44.54    2.76
   7   3  -3   45.07    3.02
   7   3  -3   45.42    2.96
   7   3  -2   67.03    3.99
   7   3  -2   64.35    3.75
   7   3  -2   63.67    3.81
   7   3  -2   68.37    3.76
   7   3  -2   66.45    4.06
   7   3  -2   64.05    5.14
   7   3  -1   24.71    1.89
   7   3  -1   23.88    1.65
   7   3  -1   25.15    1.71
   7   3  -1   20.02    1.52
   7   3  -1   21.47    1.86
   7   3  -1   19.31    2.53
   7   3   0   46.79    3.02
   7   3   0   43.85    2.71
   7   3   0   38.27    3.41
   7   3   0   45.37    2.73
   7   3   0   46.71    3.06
   7   3   0   42.24    3.95
   7   3   1   68.69    3.77
   7   3   1   58.28    3.45
   7   3   1   56.14    4.33
   7   3   1   60.65    3.44
   7   3   1   63.94    3.81
   7   3   1   71.38    5.18
   7   3   1   51.98    3.34
   7   3   2   18.49    1.57
   7   3   2   16.18    2.08
   7   3   2   17.03    1.29
   7   3   2   15.67    1.60
   7   3   2   14.84    1.23
   7   3   3  324.44   15.29
   7   3   3  283.43   14.95
   7   3   3  295.35   16.29
   7   3   3  284.66   14.87
   7   3   3  308.09   15.35
   7   3   3  333.43   17.02
   7   3   3  291.15   14.90
   7   3   4   10.58    1.26
   7   3   4   12.19    1.11
   7   3   4   10.28    1.72
   7   3   4   12.76    1.95
   7   3   4   12.34    1.05
   7   3   5   90.54    4.97
   7   3   5   83.29    4.68
   7   3   5   81.27    5.94
   7   3   5   80.75    4.59
   7   3   5   95.04    6.38
   7   3   5   81.80    4.62
   7   3   6  303.00   15.28
   7   3   6  281.38   16.55
   7   3   6  282.21   14.92
   7   3   6  312.85   15.04
   7   3   6  308.94   16.84
   7   3   6  293.44   14.97
   7   3   7    1.83    0.52
   7   3   7    2.31    0.74
   7   3   7    1.73    1.00
   7   3   7    1.75    0.94
   7   3   7    2.85    0.59
   7   3   7    3.06    0.54
   7   3   7    4.80    1.26
   7   3   8  172.89   10.80
   7   3   8  180.52    9.02
   7   3   8  170.28   10.76
   7   3   8  169.39    9.01
   7   3   8  175.18   10.68
   7   3   8  167.16    9.01
   7   3   9   -0.18    0.43
   7   3   9    0.24    0.71
   7   3   9   -0.05    0.39
   7   3   9   -0.25    0.99
   7   3   9    0.30    0.40
   7   3   9    0.43    0.59
   7   3  10   19.53    2.59
   7   3  10   29.03    3.28
   7   3  10   24.76    1.76
   7   3  10   25.56    3.12
   7   3  10   24.07    1.83
   7   3  10   24.33    1.86
   7   3  11   61.26    4.95
   7   3  11   69.14    5.65
   7   3  11   63.62    5.57
   7   3  11   62.99    3.84
   7   3  11   64.94    3.85
   7   3  12   56.53    5.40
   7   3  12   60.86    3.76
   7   3  12   62.73    3.76
   7   3  13  299.61   18.53
   7   3  13  334.40   16.42
   7   3  13  312.23   16.34
   7   3  14   14.45    2.60
   7   3  14   19.49    2.93
   7   3  14   17.57    1.56
   7   3  14   15.67    1.52
   7   3  15  175.56   12.12
   7   3  15  200.15    9.96
   7   3  15  188.18    9.90
   7   3  16    0.63    0.54
   7   3  16    0.57    0.59
   7   3  17   32.17    2.31
   7   3  17   33.90    2.33
   7   3  18    9.81    1.05
   7   3  19    2.38    0.56
   7   3  20   61.81    3.49
   7   3  21    0.03    0.28
   7   3  22   52.63    2.78
   7   4 -15   93.78    4.34
   7   4 -15   84.98    4.36
   7   4 -14    0.22    0.31
   7   4 -14    0.43    0.35
   7   4 -14    0.81    0.74
   7   4 -13    9.31    0.95
   7   4 -13   11.60    1.05
   7   4 -13   11.68    1.33
   7   4 -12   55.63    3.28
   7   4 -12   62.48    3.38
   7   4 -12   60.47    3.45
   7   4 -11    9.12    0.91
   7   4 -11    6.66    0.90
   7   4 -11    9.44    1.13
   7   4 -10  114.36    6.13
   7   4 -10  108.90    6.13
   7   4 -10  114.80    6.29
   7   4  -9    2.16    0.60
   7   4  -9    3.56    0.66
   7   4  -9    1.81    0.64
   7   4  -9    1.41    0.75
   7   4  -8   17.18    1.48
   7   4  -8   18.13    1.52
   7   4  -8   16.39    1.64
   7   4  -7   57.54    3.36
   7   4  -7   52.23    3.32
   7   4  -7   52.02    3.48
   7   4  -6    1.83    0.59
   7   4  -6    3.03    0.81
   7   4  -5   46.31    4.18
   7   4  -5   43.22    2.80
   7   4  -5   50.68    3.05
   7   4  -5   53.46    3.08
   7   4  -5   50.42    3.24
   7   4  -4    7.26    0.84
   7   4  -4    8.01    0.96
   7   4  -4   10.10    1.00
   7   4  -4    7.18    1.14
   7   4  -4    8.38    1.60
   7   4  -3  111.97    6.33
   7   4  -3  117.24    7.82
   7   4  -3  109.91    6.18
   7   4  -3  117.44    6.25
   7   4  -3  127.81    6.58
   7   4  -2   50.69    4.41
   7   4  -2   50.61    3.11
   7   4  -2   54.39    3.12
   7   4  -2   59.16    3.50
   7   4  -1    0.67    0.77
   7   4  -1    0.21    0.40
   7   4  -1    0.98    0.43
   7   4  -1    1.08    0.42
   7   4  -1    1.07    0.77
   7   4  -1    0.39    0.67
   7   4   0  219.68   12.95
   7   4   0  207.62   12.46
   7   4   0  213.84   11.20
   7   4   0  232.66   11.61
   7   4   1    1.02    0.61
   7   4   1    1.49    0.84
   7   4   1    0.05    0.34
   7   4   1   -0.21    0.70
   7   4   1    0.16    0.64
   7   4   2    2.39    0.74
   7   4   2    1.47    0.68
   7   4   2    0.78    0.89
   7   4   2    2.11    0.45
   7   4   2    1.26    0.76
   7   4   3   22.32    2.31
   7   4   3   25.86    1.98
   7   4   3   23.69    2.72
   7   4   3   23.04    1.58
   7   4   3   19.87    1.97
   7   4   3   22.63    2.73
   7   4   4  164.00    9.87
   7   4   4  176.67    9.09
   7   4   4  169.97   10.33
   7   4   4  161.52    8.60
   7   4   4  185.54   10.65
   7   4   5  112.32    7.77
   7   4   5  120.41    7.45
   7   4   5  119.56    6.48
   7   4   5  119.99    7.76
   7   4   5  109.15    6.05
   7   4   6   18.93    2.46
   7   4   6   18.80    2.24
   7   4   6   17.08    1.66
   7   4   6   20.91    2.57
   7   4   6   15.30    1.28
   7   4   7  363.13   19.00
   7   4   7  378.54   18.90
   7   4   7  356.45   17.12
   7   4   7  343.86   18.89
   7   4   7  320.04   16.95
   7   4   7  329.03   17.00
   7   4   8    0.22    0.38
   7   4   8    0.65    0.67
   7   4   8    0.46    0.83
   7   4   8    0.90    0.45
   7   4   8    0.15    0.32
   7   4   8    0.44    0.71
   7   4   9  133.93    8.52
   7   4   9  137.82    8.69
   7   4   9  134.55    6.86
   7   4   9  127.58    8.64
   7   4   9  123.15    6.81
   7   4   9  120.89    6.82
   7   4  10  127.53    8.11
   7   4  10  110.35    8.15
   7   4  10  119.12    6.45
   7   4  10  114.22    8.24
   7   4  10  118.20    6.50
   7   4  10  125.18    6.56
   7   4  11   21.30    2.60
   7   4  11   24.63    3.16
   7   4  11   19.31    2.86
   7   4  11   26.82    1.87
   7   4  11   23.45    1.81
   7   4  12   54.72    4.90
   7   4  12   46.00    4.62
   7   4  12   52.95    3.21
   7   4  12   48.45    3.16
   7   4  13   15.87    2.55
   7   4  13   13.85    2.47
   7   4  13   13.37    1.32
   7   4  13   13.11    1.33
   7   4  14   46.18    2.99
   7   4  14   45.28    2.99
   7   4  15    3.80    0.82
   7   4  15    5.15    0.82
   7   4  16    1.44    0.59
   7   4  16    1.78    0.62
   7   4  17   15.12    1.39
   7   4  17   16.87    1.45
   7   4  18   11.13    1.12
   7   4  18   12.22    1.17
   7   4  19  128.68    7.06
   7   4  19  139.04    7.10
   7   4  20    0.81    0.42
   7   4  20    0.16    0.36
  -7  -4 -21   39.32    2.53
   7   4  21   44.99    2.51
   7   4  21   47.25    2.55
  -7  -4 -22    4.53    0.50
   7   4  22    5.22    0.47
   7   4  22    5.36    0.51
   7   5 -15    7.79    0.65
   7   5 -14   12.15    0.97
   7   5 -13   39.87    2.49
   7   5 -13   47.66    2.62
   7   5 -12    0.66    0.39
   7   5 -12    0.25    0.43
   7   5 -11  140.48    7.40
   7   5 -10   14.64    1.26
   7   5 -10   14.34    1.25
   7   5  -9   27.67    2.01
   7   5  -9   29.91    2.09
   7   5  -8   86.46    4.64
   7   5  -8   73.00    4.48
   7   5  -8   82.63    4.68
   7   5  -8   82.18    4.81
   7   5  -7    3.87    0.71
   7   5  -7    4.19    0.66
   7   5  -7    4.02    0.75
   7   5  -7    4.66    0.95
   7   5  -6   34.99    2.31
   7   5  -6   28.94    2.12
   7   5  -6   35.10    2.33
   7   5  -6   35.57    2.54
   7   5  -5    3.36    0.82
   7   5  -5    2.60    0.52
   7   5  -5    3.32    0.68
   7   5  -5    2.84    0.63
   7   5  -5    2.90    0.86
   7   5  -4  587.86   29.21
   7   5  -4  542.25   30.77
   7   5  -4  522.35   28.88
   7   5  -4  594.67   29.09
   7   5  -4  614.39   29.10
   7   5  -4  615.85   29.34
   7   5  -4  626.53   29.26
   7   5  -3   69.66    4.12
   7   5  -3   72.55    5.52
   7   5  -3   63.63    3.86
   7   5  -3   71.88    3.95
   7   5  -3   74.21    4.28
   7   5  -3   71.46    4.16
   7   5  -2  183.84    9.81
   7   5  -2  166.39   11.20
   7   5  -2  153.25   10.84
   7   5  -2  185.79    9.62
   7   5  -2  196.01   10.00
   7   5  -2  200.81    9.93
   7   5  -1  467.01   22.63
   7   5  -1  438.21   22.48
   7   5  -1  444.52   24.23
   7   5  -1  392.99   23.77
   7   5  -1  449.21   22.54
   7   5  -1  452.47   22.39
   7   5  -1  433.09   22.30
   7   5  -1  487.20   22.79
   7   5   0    0.15    0.60
   7   5   0    0.76    0.58
   7   5   0    0.63    0.78
   7   5   0    0.65    0.60
   7   5   0    0.26    0.38
   7   5   0    0.51    0.33
   7   5   0    0.22    0.80
   7   5   0   -0.09    0.70
   7   5   1   20.22    1.83
   7   5   1   24.93    1.89
   7   5   1   22.28    2.67
   7   5   1   19.73    2.58
   7   5   1   21.44    1.66
   7   5   1   20.93    1.54
   7   5   1   17.82    1.72
   7   5   1   19.85    1.91
   7   5   2   17.87    2.51
   7   5   2   17.36    1.48
   7   5   2   20.45    1.45
   7   5   2   21.94    1.96
   7   5   3   96.38    6.28
   7   5   3  117.18    7.54
   7   5   3  100.47    5.48
   7   5   3  106.84    6.17
   7   5   4  113.46    7.67
   7   5   4  116.94    6.32
   7   5   4  104.17    6.79
   7   5   4  106.42    7.67
   7   5   4  107.28    5.78
   7   5   5   23.10    1.95
   7   5   5   20.08    2.25
   7   5   5   21.80    2.78
   7   5   5   21.11    1.44
   7   5   5   18.77    2.61
   7   5   6  390.22   20.51
   7   5   6  365.34   19.83
   7   5   6  352.36   20.32
   7   5   7   16.33    2.12
   7   5   7   13.41    2.21
   7   5   7   16.32    2.34
   7   5   7   13.77    1.16
   7   5   8  107.95    6.97
   7   5   8  101.66    6.65
   7   5   8   90.68    6.77
   7   5   8   85.68    4.97
   7   5   9   93.77    6.65
   7   5   9   89.31    6.56
   7   5   9   91.00    6.76
   7   5   9   88.86    4.98
   7   5  10    7.06    1.57
   7   5  10    6.42    0.81
   7   5  10    8.33    1.79
   7   5  10    4.38    0.74
   7   5  10    5.03    1.45
   7   5  10    6.01    0.76
   7   5  10    6.54    1.08
   7   5  11  104.10    7.22
   7   5  11   89.89    6.67
   7   5  11   92.12    5.12
   7   5  11   85.40    6.89
   7   5  11   94.38    5.17
   7   5  11   81.66    5.49
   7   5  11  100.63    5.25
   7   5  12    7.89    1.89
   7   5  12   10.79    1.07
   7   5  12    9.37    1.36
   7   5  12   10.10    1.09
   7   5  13  205.81   12.76
   7   5  13  200.13   10.38
   7   5  13  184.39   10.70
   7   5  13  204.82   10.41
   7   5  14  170.75   10.76
   7   5  14  155.02    8.26
   7   5  14  138.32    8.53
   7   5  14  163.06    8.30
   7   5  15    0.33    0.51
   7   5  15    0.60    0.82
   7   5  15    0.39    0.46
   7   5  15    0.09    0.79
   7   5  16   14.50    1.34
   7   5  16   14.13    1.58
   7   5  16   17.24    1.44
   7   5  17    1.28    0.53
   7   5  17    1.36    0.52
   7   5  17    0.79    0.68
   7   5  18  180.60    8.95
   7   5  18  179.98    8.97
   7   5  19    0.44    0.42
   7   5  19    0.82    0.39
   7   5  19    0.22    0.56
   7   5  20   17.99    1.30
   7   5  20   18.60    1.36
  -7  -5 -21    9.04    0.82
   7   5  21    8.91    0.74
   7   5  21    9.31    0.80
   7   5  22    0.85    0.26
  -7  -5 -22    0.86    0.26
   7   6 -14   52.77    2.49
   7   6 -14   35.66    2.47
   7   6 -13    1.19    0.39
   7   6 -13    0.58    0.84
   7   6 -12   67.78    3.87
   7   6 -12   79.00    4.05
   7   6 -12   70.26    4.13
   7   6 -11    9.81    0.93
   7   6 -11    8.76    1.09
   7   6 -10   26.68    1.92
   7   6 -10   37.05    2.32
   7   6  -9   76.55    4.31
   7   6  -9   68.73    4.17
   7   6  -8    3.99    0.73
   7   6  -8    3.78    0.60
   7   6  -8    4.24    0.74
   7   6  -8    2.82    0.56
   7   6  -8    3.71    0.89
   7   6  -7   87.71    4.65
   7   6  -7   93.04    4.72
   7   6  -6    4.31    0.76
   7   6  -6    4.08    0.60
   7   6  -6    5.08    0.79
   7   6  -5   33.09    2.44
   7   6  -5   31.24    2.12
   7   6  -5   34.27    2.22
   7   6  -5   36.11    2.27
   7   6  -4   52.91    3.56
   7   6  -4   55.58    3.34
   7   6  -4   48.72    3.20
   7   6  -4   61.16    3.43
   7   6  -4   56.33    3.38
   7   6  -4   60.63    3.59
   7   6  -3   17.63    1.78
   7   6  -3   15.20    2.46
   7   6  -3   19.12    1.83
   7   6  -3   19.45    1.59
   7   6  -3   21.64    1.60
   7   6  -3   19.27    1.74
   7   6  -2 1185.59   57.26
   7   6  -2 1079.57   58.91
   7   6  -2  962.10   58.58
   7   6  -2 1269.90   57.36
   7   6  -2 1118.30   56.99
   7   6  -2 1206.57   57.25
   7   6  -1   31.91    2.39
   7   6  -1   30.34    2.35
   7   6  -1   31.95    3.46
   7   6  -1   25.31    3.22
   7   6  -1   33.03    2.41
   7   6  -1   32.78    2.18
   7   6  -1   32.62    2.14
   7   6   0  101.06    5.74
   7   6   0  100.99    5.70
   7   6   0   94.18    7.16
   7   6   0   86.16    7.08
   7   6   0  106.39    5.71
   7   6   0   98.76    5.45
   7   6   0   98.67    5.40
   7   6   0   98.75    5.80
   7   6   1   22.03    1.94
   7   6   1   24.56    1.99
   7   6   1   20.61    2.77
   7   6   1   23.16    2.96
   7   6   1   21.93    1.84
   7   6   1   25.48    1.71
   7   6   1   21.90    1.62
   7   6   1   23.66    2.02
   7   6   2    6.02    1.52
   7   6   2    5.37    1.01
   7   6   2    4.68    0.97
   7   6   2    4.39    1.53
   7   6   2    5.97    0.87
   7   6   2    5.95    0.73
   7   6   2    5.84    1.03
   7   6   3  128.32    6.76
   7   6   3  133.08    8.55
   7   6   3  110.12    6.40
   7   6   3  113.55    6.24
   7   6   3  122.43    6.76
   7   6   4    3.22    0.91
   7   6   4    6.27    1.65
   7   6   4    4.97    0.91
   7   6   4    4.02    0.58
   7   6   4    4.10    1.00
   7   6   4    3.61    1.33
   7   6   5  303.57   16.69
   7   6   5  270.74   15.53
   7   6   5  321.95   16.99
   7   6   5  273.31   14.39
   7   6   5  313.15   15.05
   7   6   6    0.97    0.87
   7   6   6    0.76    1.01
   7   6   6    0.34    0.68
   7   6   6   -0.46    0.92
   7   6   7  139.93    8.91
   7   6   7  121.71    8.14
   7   6   7  128.61    8.75
   7   6   7  126.92    7.35
   7   6   8  115.13    7.48
   7   6   8  108.60    7.70
   7   6   8  109.32    7.76
   7   6   8  104.56    6.37
   7   6   9    6.15    1.50
   7   6   9    5.77    1.59
   7   6   9    4.46    1.34
   7   6   9    9.67    1.34
   7   6  10  113.17    7.95
   7   6  10  113.09    7.90
   7   6  10  119.49    6.71
   7   6  10  110.16    6.07
   7   6  11    6.38    0.81
   7   6  11    6.56    1.51
   7   6  11    7.95    1.74
   7   6  11    5.69    1.21
   7   6  12   85.69    6.58
   7   6  12   80.29    4.54
   7   6  12   79.57    5.08
   7   6  12   80.95    4.59
   7   6  13   25.48    3.43
   7   6  13   27.78    3.41
   7   6  13   29.77    2.00
   7   6  13   25.54    2.40
   7   6  13   30.67    2.08
   7   6  14   99.17    7.73
   7   6  14   94.81    7.54
   7   6  14   96.93    5.51
   7   6  14  102.12    6.05
   7   6  14  103.22    5.56
   7   6  15   39.88    4.52
   7   6  15   39.84    4.44
   7   6  15   47.79    2.95
   7   6  15   49.03    3.43
   7   6  15   51.01    3.01
   7   6  16    5.26    0.77
   7   6  16    5.81    0.76
   7   6  16    3.92    0.97
   7   6  17   36.08    2.31
   7   6  17   32.46    2.62
   7   6  17   36.70    2.33
   7   6  18    4.57    0.67
   7   6  18    5.13    0.65
   7   6  18    3.53    0.90
   7   6  19   41.26    2.34
   7   6  19   34.41    2.56
   7   6  19   38.81    2.38
   7   6  20    7.65    0.92
   7   6  20    8.30    0.76
   7   6  21    6.78    0.61
   7   7 -13   73.25    3.39
   7   7 -13   52.12    3.34
   7   7 -12    4.39    0.56
   7   7 -12    3.85    0.97
   7   7 -11    6.84    0.72
   7   7 -11    7.22    0.78
   7   7 -11    5.87    1.02
   7   7 -10   65.34    3.78
   7   7 -10   67.53    3.78
   7   7 -10   64.25    3.88
   7   7  -9   -0.07    0.59
   7   7  -8  120.82    6.69
   7   7  -7    4.78    0.77
   7   7  -7    3.79    0.75
   7   7  -7    3.46    0.62
   7   7  -7    4.94    0.97
   7   7  -6    0.50    0.52
   7   7  -6   -0.06    0.50
   7   7  -6   -0.16    0.71
   7   7  -5   73.98    4.52
   7   7  -5   70.78    4.23
   7   7  -5   75.60    4.29
   7   7  -5   71.07    4.46
   7   7  -4   12.63    1.48
   7   7  -4   13.87    1.26
   7   7  -4   14.36    1.58
   7   7  -4   13.66    1.30
   7   7  -4   14.17    1.30
   7   7  -4   13.79    1.55
   7   7  -3   72.49    4.38
   7   7  -3   66.70    4.05
   7   7  -3   75.77    4.43
   7   7  -3   68.24    4.09
   7   7  -3   70.25    4.10
   7   7  -3   70.69    4.38
   7   7  -3   67.89    4.19
   7   7  -2  185.51    9.92
   7   7  -2  182.62    9.65
   7   7  -2  157.87   11.43
   7   7  -2  193.18    9.99
   7   7  -2  185.93    9.62
   7   7  -2  187.36    9.98
   7   7  -2  178.54    9.75
   7   7  -1  135.14    7.57
   7   7  -1  145.32    7.36
   7   7  -1  149.92    7.63
   7   7  -1  133.07    7.26
   7   7  -1  131.89    7.25
   7   7  -1  140.82    7.68
   7   7  -1  129.13    7.41
   7   7   0   78.42    4.70
   7   7   0   75.70    4.77
   7   7   0   73.08    6.19
   7   7   0   69.59    6.29
   7   7   0   88.19    4.86
   7   7   0   82.50    4.53
   7   7   0   79.20    4.49
   7   7   0   80.02    4.95
   7   7   0   75.75    4.95
   7   7   1    0.15    0.67
   7   7   1    0.33    0.64
   7   7   1    0.26    0.76
   7   7   1   -0.28    1.10
   7   7   1    0.39    0.63
   7   7   1    0.39    0.42
   7   7   1    0.71    0.44
   7   7   1    0.38    0.73
   7   7   1    0.77    0.89
   7   7   2  142.08    7.82
   7   7   2  145.94    7.91
   7   7   2  130.65    9.43
   7   7   2  136.42    9.77
   7   7   2  142.20    7.79
   7   7   2  143.01    7.52
   7   7   2  133.52    7.49
   7   7   2  153.76    8.09
   7   7   2  150.55    8.10
   7   7   3    4.13    0.89
   7   7   3    3.88    0.91
   7   7   3    5.51    1.62
   7   7   3    3.69    0.82
   7   7   3    3.64    0.59
   7   7   3    3.19    0.58
   7   7   3    4.94    1.04
   7   7   3    2.95    0.96
   7   7   4  144.01    7.74
   7   7   4  133.85    9.19
   7   7   4  151.65    9.75
   7   7   4  134.19    7.60
   7   7   4  130.22    7.40
   7   7   4  130.87    7.16
   7   7   4  145.77    7.86
   7   7   4  141.89    7.86
   7   7   5    0.26    0.93
   7   7   5    0.38    0.67
   7   7   5    0.85    1.17
   7   7   5    0.69    0.73
   7   7   5    0.09    0.29
   7   7   5    1.02    0.85
   7   7   6   15.66    2.49
   7   7   6   15.38    1.69
   7   7   6   13.41    2.44
   7   7   6   15.86    1.65
   7   7   6   14.32    1.75
   7   7   7   41.40    3.77
   7   7   7   49.95    4.59
   7   7   7   48.77    4.68
   7   7   7   48.93    3.33
   7   7   7   44.72    3.41
   7   7   8   13.59    2.34
   7   7   8   11.45    1.46
   7   7   8   11.03    1.85
   7   7   8   14.87    1.70
   7   7   9   65.01    5.36
   7   7   9   76.85    4.17
   7   7   9   68.53    5.69
   7   7   9   63.78    4.39
   7   7   9   71.14    4.65
   7   7  10    3.94    0.69
   7   7  10    2.37    0.89
   7   7  10    1.90    1.02
   7   7  10    2.15    0.95
   7   7  11  164.61   10.57
   7   7  11  164.77    8.55
   7   7  11  152.76   10.57
   7   7  11  148.31    8.86
   7   7  11  177.51    9.23
   7   7  12    9.96    1.92
   7   7  12    5.74    1.12
   7   7  12    5.84    1.59
   7   7  12    8.39    0.92
   7   7  12    7.95    1.40
   7   7  13   20.40    2.73
   7   7  13   15.18    2.52
   7   7  13   13.43    1.60
   7   7  13   16.34    1.83
   7   7  13   15.29    1.26
   7   7  14   11.07    2.29
   7   7  14   14.86    1.76
   7   7  14   14.80    1.22
   7   7  15    9.08    1.40
   7   7  15   10.78    1.02
   7   7  16   19.57    1.92
   7   7  16   20.77    1.51
   7   7  17    4.44    0.64
   7   7  17    5.81    1.06
   7   7  18   17.00    1.64
   7   7  18   16.68    1.26
   7   7  19    2.17    0.42
   7   7  19    2.88    0.73
   7   7  20    0.30    0.51
   7   7  21   33.75    2.10
   7   8 -12   10.72    0.84
   7   8 -11   33.62    2.16
   7   8 -11   33.48    2.27
   7   8 -10    0.34    0.36
   7   8 -10    0.40    0.36
   7   8 -10    0.13    0.72
   7   8  -9  180.16    8.83
   7   8  -9  164.66    8.76
   7   8  -9  161.16    8.82
   7   8  -8    2.63    0.62
   7   8  -8    2.95    0.74
   7   8  -7   16.81    1.56
   7   8  -6   45.55    2.83
   7   8  -6   40.61    2.89
   7   8  -5    4.82    1.04
   7   8  -5    3.59    0.72
   7   8  -5    3.80    0.90
   7   8  -4   48.83    3.31
   7   8  -4   40.86    2.87
   7   8  -4   52.67    3.37
   7   8  -4   49.14    3.04
   7   8  -4   50.00    3.25
   7   8  -3    3.02    0.97
   7   8  -3    1.92    0.67
   7   8  -3    2.06    0.58
   7   8  -3    3.15    0.93
   7   8  -3    2.43    0.63
   7   8  -3    2.43    0.83
   7   8  -2   97.12    5.63
   7   8  -2  104.10    5.91
   7   8  -2   95.24    5.54
   7   8  -2   81.98    7.38
   7   8  -2  119.84    6.03
   7   8  -2  100.11    5.56
   7   8  -2  101.03    5.85
   7   8  -2   93.18    5.56
   7   8  -1    0.93    0.61
   7   8  -1    1.28    0.87
   7   8  -1    0.94    0.58
   7   8  -1    1.19    1.23
   7   8  -1    0.09    0.79
   7   8  -1    1.14    0.52
   7   8  -1    2.09    0.60
   7   8  -1    0.27    0.80
   7   8   0   24.56    1.95
   7   8   0   27.22    2.25
   7   8   0   24.92    1.93
   7   8   0   26.65    3.61
   7   8   0   26.98    2.17
   7   8   0   24.37    1.84
   7   8   0   26.83    1.89
   7   8   0   21.59    2.12
   7   8   0   22.60    2.29
   7   8   0   22.84    1.91
   7   8   1   69.68    4.37
   7   8   1   81.06    4.47
   7   8   1   73.01    4.38
   7   8   1   70.69    6.39
   7   8   1   77.51    4.64
   7   8   1   70.87    4.25
   7   8   1   75.26    4.32
   7   8   1   76.99    4.76
   7   8   1   76.45    4.86
   7   8   2   14.54    1.50
   7   8   2   16.02    1.63
   7   8   2   15.32    1.44
   7   8   2   16.69    1.50
   7   8   2   15.04    2.68
   7   8   2   14.66    1.62
   7   8   2   15.72    1.36
   7   8   2   16.20    1.47
   7   8   2   15.52    1.75
   7   8   2   18.08    1.92
   7   8   3   84.07    5.12
   7   8   3   87.65    5.31
   7   8   3   90.70    5.07
   7   8   3   88.47    7.27
   7   8   3   90.12    5.23
   7   8   3   85.46    4.94
   7   8   3   92.25    5.61
   7   8   3   90.92    5.49
   7   8   4   -0.08    0.64
   7   8   4    1.76    0.79
   7   8   4    0.21    0.60
   7   8   4    0.31    1.01
   7   8   4    2.32    0.88
   7   8   4    1.43    0.70
   7   8   4    1.23    0.53
   7   8   4    0.45    0.93
   7   8   4    0.62    0.90
   7   8   4    0.66    0.54
   7   8   5   34.75    2.79
   7   8   5   39.25    2.59
   7   8   5   41.74    4.38
   7   8   5   35.47    2.85
   7   8   5   35.84    2.61
   7   8   5   39.54    2.62
   7   8   5   36.13    3.05
   7   8   5   34.36    2.91
   7   8   6   54.68    3.69
   7   8   6   58.18    3.43
   7   8   6   59.71    5.35
   7   8   6   48.87    3.16
   7   8   6   57.20    3.74
   7   8   6   50.56    3.40
   7   8   6   55.15    3.41
   7   8   6   52.44    3.85
   7   8   7    0.69    0.53
   7   8   7   -0.40    0.80
   7   8   7    0.92    0.92
   7   8   7    0.29    0.52
   7   8   8   46.15    2.92
   7   8   8   42.05    3.22
   7   8   8   42.15    3.36
   7   8   9    5.00    0.79
   7   8   9    3.43    1.46
   7   8   9    3.31    1.02
   7   8   9    4.56    1.22
   7   8  10  104.05    8.39
   7   8  10  115.15    6.96
   7   8  10  128.52    7.21
   7   8  10  122.92    6.60
   7   8  11   35.56    2.36
   7   8  11   26.51    3.56
   7   8  11   35.33    2.77
   7   8  11   34.97    2.87
   7   8  12    1.97    0.57
   7   8  12    1.65    1.11
   7   8  12    3.47    0.99
   7   8  12    0.99    0.92
   7   8  13   86.28    7.12
   7   8  13   89.57    5.62
   7   8  13  103.07    5.88
   7   8  14   13.88    1.60
   7   8  14   15.45    1.76
   7   8  15   75.18    4.81
   7   8  15   85.07    5.05
   7   8  16   21.03    1.90
   7   8  16   25.37    2.18
   7   8  17   19.87    1.74
   7   8  17   25.08    2.07
   7   8  18   18.01    1.71
   7   8  19    0.90    0.60
   7   8  20   29.56    2.04
   7   8  21    5.61    0.68
   7   9 -11    0.38    0.27
   7   9 -10   60.30    3.72
   7   9 -10   73.39    3.70
   7   9  -9    2.78    0.57
   7   9  -9    3.14    0.56
   7   9  -8   60.49    3.21
   7   9  -8   46.35    3.07
   7   9  -7   67.07    3.79
   7   9  -7   59.98    3.70
   7   9  -6    3.52    0.70
   7   9  -6    2.63    0.69
   7   9  -5   71.07    4.36
   7   9  -5   77.72    4.23
   7   9  -5   69.83    4.08
   7   9  -5   62.53    4.12
   7   9  -4    0.69    0.84
   7   9  -4    0.91    0.56
   7   9  -4    1.46    0.83
   7   9  -4    0.85    0.52
   7   9  -4    1.91    0.71
   7   9  -3   44.54    3.17
   7   9  -3   45.15    2.94
   7   9  -3   44.86    3.20
   7   9  -3   47.54    2.91
   7   9  -3   40.29    2.96
   7   9  -2   16.05    1.80
   7   9  -2   16.33    1.46
   7   9  -2   18.89    1.88
   7   9  -2   19.31    1.55
   7   9  -2   17.83    1.68
   7   9  -1   20.19    2.01
   7   9  -1   19.91    1.68
   7   9  -1   16.44    2.89
   7   9  -1   22.08    2.05
   7   9  -1   21.66    1.70
   7   9  -1   20.01    1.87
   7   9   0  363.58   18.79
   7   9   0  389.12   19.13
   7   9   0  375.19   18.75
   7   9   0  327.50   21.31
   7   9   0  428.21   19.18
   7   9   0  376.55   18.71
   7   9   0  377.18   18.93
   7   9   0  331.85   18.51
   7   9   1   40.95    2.60
   7   9   1   37.76    2.53
   7   9   1   35.36    4.27
   7   9   1   40.17    2.86
   7   9   1   38.42    2.50
   7   9   1   35.71    2.54
   7   9   1   34.00    2.71
   7   9   1   34.32    2.97
   7   9   1   29.83    2.31
   7   9   2   15.55    1.45
   7   9   2   14.56    1.42
   7   9   2   16.83    2.88
   7   9   2   16.57    1.70
   7   9   2   15.68    1.38
   7   9   2   13.37    1.42
   7   9   2   15.53    1.66
   7   9   2   13.31    1.79
   7   9   2   12.53    1.29
   7   9   3    3.61    0.72
   7   9   3    4.92    0.97
   7   9   3    4.12    0.78
   7   9   3    3.29    1.64
   7   9   3    5.19    0.78
   7   9   3    3.99    0.98
   7   9   3    3.57    0.74
   7   9   3    7.36    1.42
   7   9   3    5.25    1.08
   7   9   4  106.15    6.28
   7   9   4  110.32    6.57
   7   9   4  115.71    6.34
   7   9   4  105.48    8.63
   7   9   4  126.06    6.35
   7   9   4  120.34    6.86
   7   9   4  111.78    6.58
   7   9   4  108.18    6.33
   7   9   4  117.41    6.73
   7   9   4  130.04    7.10
   7   9   5   35.02    2.64
   7   9   5   36.38    2.89
   7   9   5   45.32    2.85
   7   9   5   40.20    2.58
   7   9   5   47.75    3.27
   7   9   5   39.84    2.89
   7   9   5   33.37    2.98
   7   9   5   40.79    2.81
   7   9   5   43.76    3.36
   7   9   5   41.76    3.07
   7   9   6   22.03    1.96
   7   9   6   24.71    2.26
   7   9   6   30.95    2.19
   7   9   6   25.77    1.89
   7   9   6   32.70    2.58
   7   9   6   27.20    2.23
   7   9   6   28.80    2.15
   7   9   6   28.76    2.65
   7   9   6   28.42    2.44
   7   9   7   56.63    3.94
   7   9   7   66.03    3.79
   7   9   7   52.25    5.44
   7   9   7   57.68    4.09
   7   9   7   52.51    3.71
   7   9   7   58.62    3.72
   7   9   7   69.22    4.36
   7   9   7   63.00    4.07
   7   9   8    0.43    0.57
   7   9   8    0.30    0.94
   7   9   8    0.64    0.92
   7   9   8    0.83    0.91
   7   9   8   -0.22    0.58
   7   9   9   51.89    3.20
   7   9   9   50.71    5.00
   7   9   9   48.05    3.59
   7   9   9   46.44    3.65
   7   9  10   16.34    1.44
   7   9  10   14.12    2.63
   7   9  10   15.96    1.85
   7   9  10   13.67    1.83
   7   9  11    1.46    0.54
   7   9  11    0.87    1.04
   7   9  11    1.53    0.96
   7   9  11    0.90    0.96
   7   9  12   51.62    3.35
   7   9  12   53.64    5.24
   7   9  12   59.72    3.90
   7   9  12   62.16    4.06
   7   9  13    7.64    1.33
   7   9  13    9.66    1.49
   7   9  14   35.11    2.79
   7   9  14   40.16    2.97
   7   9  15    2.14    0.83
   7   9  15    2.62    0.95
   7   9  16    6.68    1.08
   7   9  16    8.08    1.27
   7   9  17   44.25    3.09
   7   9  17   57.20    3.43
   7   9  18    1.99    0.65
   7   9  18    4.40    0.86
   7   9  19    7.68    1.02
   7   9  20    0.21    0.43
   7   9  21    2.61    0.46
   7  10 -10    1.08    0.47
   7  10  -9    2.14    1.25
   7  10  -9    1.10    0.40
   7  10  -8   28.25    2.14
   7  10  -8   29.93    1.88
   7  10  -7    2.42    0.68
   7  10  -6   62.45    3.68
   7  10  -5    1.03    0.55
   7  10  -5    1.26    0.51
   7  10  -4    4.99    1.06
   7  10  -4    5.19    0.80
   7  10  -4    5.21    1.00
   7  10  -4    5.08    0.78
   7  10  -4    2.89    0.68
   7  10  -3    9.47    1.11
   7  10  -3    8.89    1.40
   7  10  -3   11.31    1.18
   7  10  -3    9.96    1.39
   7  10  -3   10.58    1.10
   7  10  -3    8.00    1.05
   7  10  -2    4.71    1.11
   7  10  -2    4.32    1.04
   7  10  -2    5.35    0.78
   7  10  -2    3.37    0.75
   7  10  -1   57.20    3.65
   7  10  -1   66.10    4.08
   7  10  -1   66.36    4.04
   7  10  -1   61.99    3.65
   7  10   0    5.72    0.96
   7  10   0    8.37    1.04
   7  10   0    7.26    1.29
   7  10   0    8.30    0.98
   7  10   0    6.49    1.01
   7  10   1  202.40   10.20
   7  10   1  198.51   10.60
   7  10   1  181.50   10.13
   7  10   1  163.71   12.57
   7  10   1  200.72   10.22
   7  10   1  204.27   10.53
   7  10   1  195.55   10.15
   7  10   1  195.93   10.22
   7  10   1  177.68   10.16
   7  10   2   70.01    4.15
   7  10   2   69.34    4.19
   7  10   2   77.54    4.23
   7  10   2   74.69    4.52
   7  10   2   69.40    4.16
   7  10   2   68.32    4.20
   7  10   2   62.14    4.19
   7  10   2   68.13    4.68
   7  10   3    2.29    0.67
   7  10   3    1.56    0.66
   7  10   3    2.41    0.62
   7  10   3    3.05    0.94
   7  10   3    1.46    1.36
   7  10   3    2.39    1.13
   7  10   3    3.02    0.83
   7  10   3    2.44    0.79
   7  10   4   16.98    1.64
   7  10   4   19.15    1.58
   7  10   4   18.72    1.55
   7  10   4   20.28    1.88
   7  10   4   15.78    2.41
   7  10   4   16.24    1.68
   7  10   4   16.45    2.09
   7  10   5    0.24    0.60
   7  10   5    0.15    0.55
   7  10   5    0.55    0.98
   7  10   5   -0.06    0.46
   7  10   5    0.09    0.74
   7  10   5    0.61    1.01
   7  10   5    0.17    0.71
   7  10   5   -0.24    0.57
   7  10   6  137.22    7.78
   7  10   6  144.77    7.70
   7  10   6  132.66    9.95
   7  10   6  133.85    7.49
   7  10   6  147.50    8.14
   7  10   6  134.25    7.80
   7  10   6  146.04    7.74
   7  10   6  132.69    7.79
   7  10   6  158.84    8.37
   7  10   7   12.24    1.49
   7  10   7   17.07    1.51
   7  10   7   15.89    2.70
   7  10   7   15.33    1.84
   7  10   7   13.08    1.73
   7  10   7   11.99    1.47
   7  10   7   13.47    1.43
   7  10   7   19.36    2.07
   7  10   7   13.27    1.53
   7  10   8   17.20    1.79
   7  10   8   20.04    1.68
   7  10   8   16.39    2.83
   7  10   8   21.16    2.10
   7  10   8   16.09    1.67
   7  10   8   20.60    1.71
   7  10   8   18.08    2.11
   7  10   8   20.65    1.90
   7  10   9   29.68    2.51
   7  10   9   34.19    2.39
   7  10   9   27.34    3.78
   7  10   9   37.59    2.88
   7  10   9   35.74    2.43
   7  10   9   38.02    2.97
   7  10   9   28.65    2.48
   7  10  10    0.73    0.52
   7  10  10    0.21    0.87
   7  10  10    0.67    0.95
   7  10  11   44.58    3.34
   7  10  11   48.80    3.54
   7  10  12    3.40    1.04
   7  10  12    2.60    1.06
   7  10  13   40.93    3.12
   7  10  13   47.49    3.36
   7  10  14    2.21    0.84
   7  10  14    1.58    0.91
   7  10  15    2.07    0.78
   7  10  15    2.59    0.95
   7  10  16   15.63    1.55
   7  10  16   17.49    1.71
   7  10  17    7.12    1.00
   7  10  17   10.33    1.23
   7  10  18   26.82    1.90
   7  10  18   32.81    2.19
   7  10  19    0.47    0.49
   7  10  20    0.61    0.40
   7  11  -8    0.67    0.84
   7  11  -7   74.05    4.39
   7  11  -7   79.73    4.24
   7  11  -6    1.88    1.54
   7  11  -5   -0.40    1.17
   7  11  -4    3.77    0.89
   7  11  -4    4.36    1.05
   7  11  -4    4.18    0.77
   7  11  -3    3.24    0.96
   7  11  -3    4.31    0.90
   7  11  -3    3.08    0.87
   7  11  -3    4.04    0.77
   7  11  -2   55.70    3.69
   7  11  -2   58.91    3.72
   7  11  -2   54.62    3.42
   7  11  -1    8.78    1.36
   7  11  -1    7.71    1.04
   7  11  -1    8.95    1.33
   7  11  -1    9.74    1.23
   7  11   0  192.89   10.00
   7  11   0  194.30   10.35
   7  11   0  191.46   10.05
   7  11   0  189.03   10.29
   7  11   0  185.33   10.03
   7  11   1    6.16    1.32
   7  11   1    5.35    0.89
   7  11   1    4.62    0.92
   7  11   1    6.76    1.24
   7  11   1    4.99    1.67
   7  11   1    4.46    0.77
   7  11   2    2.52    0.68
   7  11   2    3.57    0.77
   7  11   2    5.17    1.13
   7  11   2    2.51    2.05
   7  11   2    2.21    0.65
   7  11   2    2.45    0.78
   7  11   3   41.61    2.74
   7  11   3   47.36    2.90
   7  11   3   47.07    3.14
   7  11   3   42.29    3.62
   7  11   3   44.74    2.91
   7  11   3   32.84    2.63
   7  11   3   44.51    3.33
   7  11   4   26.50    2.13
   7  11   4   23.29    2.10
   7  11   4   20.43    1.82
   7  11   4   25.02    2.43
   7  11   5   39.26    2.88
   7  11   5   48.97    3.35
   7  11   5   51.92    3.34
   7  11   5   55.39    3.22
   7  11   5   41.13    2.97
   7  11   5   52.41    3.63
   7  11   6    2.88    0.74
   7  11   6    5.04    2.12
   7  11   6    2.59    1.05
   7  11   6    3.44    0.94
   7  11   6    3.71    1.20
   7  11   6    3.20    0.74
   7  11   6    3.65    0.81
   7  11   7   48.74    3.37
   7  11   7   50.21    3.57
   7  11   7   56.57    3.86
   7  11   7   53.01    3.56
   7  11   7   63.96    3.56
   7  11   7   48.05    3.40
   7  11   7   64.22    4.06
   7  11   8   48.50    3.22
   7  11   8   55.56    3.68
   7  11   8   46.81    3.25
   7  11   8   53.39    3.24
   7  11   8   43.93    3.15
   7  11   8   53.12    3.71
   7  11   9    1.51    0.70
   7  11   9    1.47    0.96
   7  11   9    2.31    0.73
   7  11   9    1.38    1.01
   7  11   9    1.29    0.69
   7  11   9    1.67    0.65
   7  11  10   60.06    3.94
   7  11  10   74.37    4.34
   7  11  10   74.11    4.46
   7  11  10   56.46    3.85
   7  11  11    0.87    0.63
   7  11  11    1.18    0.87
   7  11  11    0.40    0.86
   7  11  11    0.20    0.58
   7  11  12   14.68    1.53
   7  11  12   19.24    1.86
   7  11  12   18.19    1.92
   7  11  12   16.09    1.51
   7  11  13    0.64    0.75
   7  11  13    1.15    0.87
   7  11  13    0.90    0.60
   7  11  14    3.11    0.85
   7  11  14    3.88    0.98
   7  11  14    2.45    0.69
   7  11  15   32.01    2.32
   7  11  15   31.82    2.45
   7  11  16    4.41    0.83
   7  11  16    4.22    0.92
   7  11  17   10.57    1.11
   7  11  17   12.93    1.29
   7  11  18    0.66    0.42
   7  11  18    0.33    0.39
   7  11  18    0.43    0.52
   7  11  19    4.38    0.56
   7  11  19    3.53    0.65
   7  12  -5   14.15    1.62
   7  12  -4    0.74    1.75
   7  12  -3   20.03    1.68
   7  12  -3   18.90    2.46
   7  12  -3   20.76    2.23
   7  12  -2    6.20    1.01
   7  12  -2    5.19    0.94
   7  12  -2    5.21    2.01
   7  12  -1   57.46    3.66
   7  12  -1   59.05    3.64
   7  12  -1   56.17    3.96
   7  12   0   -0.60    0.81
   7  12   0    0.10    0.47
   7  12   0   -0.23    2.00
   7  12   0    0.30    0.73
   7  12   0    0.91    2.28
   7  12   1    8.67    0.99
   7  12   1   11.33    1.40
   7  12   1    7.07    2.28
   7  12   1   10.31    1.32
   7  12   2   84.25    4.73
   7  12   2   83.66    5.09
   7  12   2   81.51    5.25
   7  12   2   88.01    5.06
   7  12   3    4.44    2.40
   7  12   3    4.36    0.96
   7  12   3    3.12    0.75
   7  12   4   11.95    2.44
   7  12   4   10.55    1.34
   7  12   4    9.14    1.49
   7  12   5    4.36    1.88
   7  12   5    6.01    1.05
   7  12   5    6.27    1.29
   7  12   6   32.56    2.51
   7  12   6   37.45    2.44
   7  12   6   31.08    2.70
   7  12   7   15.16    1.57
   7  12   7   19.45    1.58
   7  12   7   17.25    1.90
   7  12   8    1.13    0.88
   7  12   8    1.15    0.66
   7  12   8    0.47    0.93
   7  12   8    1.04    0.58
   7  12   9   22.12    2.00
   7  12   9   18.75    1.67
   7  12   9   20.31    1.63
   7  12   9   24.29    2.12
   7  12  10   20.53    1.86
   7  12  10   15.90    1.45
   7  12  10   19.68    1.91
   7  12  11    5.76    0.85
   7  12  11    7.37    1.15
   7  12  11    7.98    1.27
   7  12  12    2.67    0.61
   7  12  12    2.80    0.86
   7  12  12    1.51    0.82
   7  12  13    2.19    0.60
   7  12  13    1.91    0.78
   7  12  13    2.44    0.87
   7  12  14   10.44    1.07
   7  12  14   12.34    1.28
   7  12  14   14.04    1.45
   7  12  15    0.32    0.41
   7  12  15   -0.05    0.55
   7  12  15   -0.30    0.65
   7  12  16    9.97    0.93
   7  12  16    9.98    1.02
   7  12  16   11.68    1.19
   7  12  17    0.08    0.28
   7  12  17   -0.16    0.36
   7  12  17   -0.09    0.45
   7  12  18    2.66    0.53
   7  13  -1    2.31    0.64
   7  13   0   -0.84    0.56
   7  13   1   12.74    1.30
   7  13   1   13.00    1.31
   7  13   2    3.62    0.87
   7  13   2    4.69    0.88
   7  13   3   38.54    2.73
   7  13   3   41.11    2.72
   7  13   4   17.23    1.66
   7  13   4   19.01    1.63
   7  13   5   -0.25    0.58
   7  13   6    3.55    0.83
   7  13   6    5.07    0.76
   7  13   7    1.20    0.64
   7  13   8   29.28    2.07
   7  13   9    0.19    0.46
   7  13  10    2.12    0.55
   7  13  11    1.36    0.69
   7  13  12    0.38    0.58
   7  13  13   29.01    2.04
   7  13  14    2.48    0.64
   7  13  15   10.49    0.99
   7  13  16    0.08    0.29
   7  14   1    0.34    0.36
   7  14   2   10.78    1.01
   7  14   3    1.03    0.49
   7  14   4    1.52    0.55
   7  14   5   15.10    1.32
   7  14   5   15.22    1.26
   7  14   6   -0.05    0.54
   7  14   6   -0.08    0.46
   7  14   7   10.68    1.12
   7  14   7   11.35    1.00
   7  14   8   13.45    1.10
   7  14   9   -0.12    0.34
   7  14   9    0.33    0.50
   7  14  10    1.71    0.38
   7  14  10    2.89    0.66
   7  14  12   10.91    1.09
   7  14  13    0.07    0.42
   7  14  14    3.81    0.58
  -8   8   3   42.91    2.31
  -8   8   2    0.06    0.23
  -8   8   1   17.51    1.12
  -8   8   0   33.85    1.92
  -8   8  -2   33.89    1.90
  -8   8  -3    0.81    0.22
   8  -7  -8    1.51    0.28
  -8   7   7    0.27    0.24
   8  -7  -7    0.44    0.28
  -8   7   7    0.12    0.20
  -8   7   6   18.06    1.13
  -8   7   6   14.78    1.07
  -8   7   5    7.07    0.63
  -8   7   5    5.50    0.54
  -8   7   5    5.58    0.58
  -8   7   4   51.10    2.86
  -8   7   4   52.84    2.87
  -8   7   3    0.36    0.30
   8  -7  -3    0.47    0.32
  -8   7   3    0.60    0.33
   8  -7  -2   15.71    1.27
  -8   7   2   19.61    1.30
  -8   7   1   21.79    1.42
  -8   7   1   29.95    1.68
   8  -7   0    8.95    0.89
  -8   7   0   10.91    0.91
   8  -7   0    8.84    0.81
   8  -7   1   19.74    1.47
   8  -7   1   21.56    1.39
   8  -7   2    8.39    0.84
   8  -7   2    8.98    0.77
   8  -7   3   23.66    1.66
  -8   7  -3   28.49    1.66
   8  -7   3   24.64    1.57
  -8   7  -4   27.64    1.62
   8  -7   4   24.14    1.54
  -8   7  -5    0.41    0.27
  -8   7  -5    0.43    0.30
   8  -7   5    0.45    0.23
  -8   7  -6    9.18    0.70
   8  -7   6    8.85    0.67
  -8   7  -7    0.21    0.26
  -8   6  10    9.63    0.71
  -8   6   9    7.24    0.63
   8  -6  -9    5.78    0.59
  -8   6   8    0.41    0.31
   8  -6  -8   -0.23    0.30
  -8   6   8   -0.21    0.30
  -8   6   7   13.82    1.08
  -8   6   6   20.97    1.39
  -8   6   6   16.56    1.17
   8  -6  -5    0.08    0.30
  -8   6   5    0.60    0.38
  -8   6   5    0.14    0.31
  -8   6   4    3.52    0.60
   8  -6  -4    3.44    0.59
  -8   6   4    4.84    0.62
  -8   6   3    5.94    0.74
   8  -6  -3    5.93    0.76
  -8   6   3    5.94    0.74
  -8   6   2    8.22    0.85
   8  -6  -2    7.89    0.89
  -8   6   2    7.33    0.84
   8  -6  -2    8.33    0.87
  -8   6   1    0.13    0.37
  -8   6   1    0.61    0.46
   8  -6  -1   -0.09    0.40
  -8   6   0  101.16    5.69
   8  -6   0  103.18    5.89
  -8   6   0  117.19    5.91
   8  -6   0  113.21    5.83
   8  -6   1    3.31    0.64
   8  -6   1    3.90    0.64
   8  -6   2    7.99    0.88
   8  -6   2    5.51    0.74
   8  -6   3    0.88    0.45
  -8   6  -3    0.15    0.44
   8  -6   3    0.44    0.39
   8  -6   4    1.23    0.45
  -8   6  -4    1.57    0.47
   8  -6   4    0.88    0.40
   8  -6   5  104.54    5.51
  -8   6  -5  110.56    5.48
  -8   6  -5   92.08    5.27
   8  -6   5  106.98    5.43
   8  -6   6    0.24    0.32
  -8   6  -6    0.40    0.34
  -8   6  -6    0.64    0.31
   8  -6   6    0.36    0.34
  -8   6  -7   53.05    2.86
  -8   6  -7   47.79    2.86
   8  -6   7   54.96    2.92
  -8   6  -8    1.13    0.34
   8  -6   8    0.81    0.31
  -8   6  -9    2.20    0.41
  -8   6  -9    3.01    0.42
   8  -6   9    2.63    0.39
  -8   6 -10   31.38    1.83
  -8   6 -10   32.51    1.84
  -8   6 -11    1.35    0.26
  -8   5  11   11.44    0.82
  -8   5  11   11.85    0.86
  -8   5  10   11.58    0.89
   8  -5 -10    9.82    0.84
  -8   5  10   11.76    0.90
  -8   5   9    0.47    0.36
   8  -5  -9    0.04    0.35
  -8   5   9    0.69    0.37
  -8   5   8   78.51    4.33
  -8   5   7    3.07    0.63
   8  -5  -6    4.60    0.62
  -8   5   6    5.24    0.61
   8  -5  -5    2.39    0.53
  -8   5   5    3.08    0.55
  -8   5   4    1.09    0.58
   8  -5  -4    0.45    0.47
  -8   5   4    2.06    0.55
  -8   5   3   94.44    5.19
   8  -5  -3   84.45    5.09
  -8   5   3   87.68    5.08
   8  -5  -3   98.53    5.12
  -8   5   2    1.37    0.59
   8  -5  -2    1.31    0.56
  -8   5   2    1.66    0.63
   8  -5  -2    2.01    0.58
  -8   5   1  119.13    6.53
  -8   5   1  119.53    6.60
   8  -5  -1  120.72    6.51
  -8   5   0   16.44    1.42
  -8   5   0   17.76    1.55
   8  -5   0   17.93    1.48
  -8   5  -1   13.22    1.22
   8  -5   1   14.67    1.36
  -8   5  -1   12.59    1.34
   8  -5   1   15.64    1.30
  -8   5  -2    8.68    0.91
   8  -5   2    8.84    1.04
   8  -5   2    8.82    0.98
   8  -5   3   26.25    2.03
  -8   5  -3   30.72    2.12
   8  -5   3   28.20    1.98
  -8   5  -4    2.92    0.56
   8  -5   4    5.58    0.81
  -8   5  -4    5.34    0.79
   8  -5   4    4.97    0.72
  -8   5  -5    2.26    0.56
   8  -5   5    3.79    0.66
  -8   5  -5    2.92    0.65
   8  -5   5    3.11    0.62
  -8   5  -6   68.97    3.97
   8  -5   6   66.47    4.02
  -8   5  -6   74.54    4.06
   8  -5   6   73.17    4.01
  -8   5  -7    0.96    0.47
   8  -5   7    0.61    0.37
  -8   5  -7    1.72    0.45
   8  -5   7    2.08    0.50
  -8   5  -8    1.48    0.49
  -8   5  -8    1.92    0.43
   8  -5   8    1.33    0.42
   8  -5   9   30.45    1.92
   8  -5  10   19.01    1.31
  -8   5 -11   24.84    1.59
  -8   5 -11   25.94    1.65
   8  -5  11   26.69    1.60
  -8   5 -12    0.02    0.21
  -8   5 -12   -0.23    0.29
   8  -5  12    0.18    0.21
  -8   5 -13   12.97    0.89
  -8   4  12    7.88    0.66
  -8   4  11   28.80    1.64
   8  -4 -11   23.50    1.59
  -8   4  11   27.83    1.68
  -8   4  10    1.87    0.45
   8  -4 -10    1.98    0.44
  -8   4  10    1.89    0.49
  -8   4   9   27.30    1.86
   8  -4  -9   24.77    1.83
  -8   4   9   30.19    1.89
  -8   4   8    9.55    1.02
  -8   4   7  137.98    6.10
   8  -4  -7   94.42    5.67
  -8   4   6    0.26    0.58
   8  -4  -6    1.43    0.43
  -8   4   6    1.27    0.45
   8  -4  -5    5.44    0.76
  -8   4   5    3.93    0.69
   8  -4  -4   76.08    4.59
  -8   4   4   79.35    4.59
   8  -4  -4   83.27    4.60
  -8   4   3    8.05    1.11
   8  -4  -3    6.97    0.97
  -8   4   3    6.66    0.96
   8  -4  -3    9.84    1.07
  -8   4   2   66.44    4.11
   8  -4  -2   67.38    4.06
  -8   4   2   64.99    4.03
   8  -4  -2   66.42    3.95
  -8   4   1    0.53    0.63
   8  -4  -1    0.90    0.59
  -8   4   1    0.67    0.61
   8  -4  -1    0.71    0.56
  -8   4   0   39.46    2.72
  -8   4   0   40.56    2.79
   8  -4   0   38.77    2.64
  -8   4  -1   31.12    2.44
   8  -4   1   36.30    2.55
  -8   4  -1   39.51    2.63
   8  -4   1   36.03    2.44
  -8   4  -2    0.33    0.48
   8  -4   2    0.58    0.53
  -8   4  -3   44.45    2.98
  -8   4  -3   44.62    2.87
   8  -4   3   50.84    3.17
  -8   4  -4    9.81    0.98
   8  -4   4   10.10    1.10
  -8   4  -4    8.87    1.12
   8  -4   4    8.90    1.01
  -8   4  -5   62.00    3.61
   8  -4   5   61.87    3.71
  -8   4  -5   59.84    3.76
   8  -4   5   60.77    3.65
  -8   4  -6   11.36    1.15
   8  -4   6   12.80    1.20
  -8   4  -6   11.32    1.24
   8  -4   6   11.99    1.16
   8  -4   6   12.78    1.18
   8  -4   7    0.33    0.44
  -8   4  -7    0.40    0.51
   8  -4   7   -0.29    0.40
  -8   4  -7    0.36    0.49
   8  -4   7   -0.23    0.49
  -8   4  -8   16.72    1.41
   8  -4   8   17.54    1.33
  -8   4  -8   16.32    1.35
   8  -4   8   17.18    1.36
   8  -4   8   14.69    1.31
  -8   4  -9   43.44    2.64
   8  -4   9   39.01    2.52
   8  -4   9   40.28    2.52
  -8   4 -10   15.37    1.35
   8  -4  10   18.96    1.34
   8  -4  10   15.15    1.25
   8  -4  11    5.02    0.61
  -8   4 -11    5.77    0.76
   8  -4  11    4.43    0.63
  -8   4 -12   13.29    1.09
   8  -4  12   12.21    0.99
   8  -4  12   11.23    0.93
   8  -4  13    1.60    0.34
   8  -4  13    2.02    0.39
   8  -4  14    4.23    0.46
  -8   4 -15   23.64    1.39
   8  -3 -13    6.20    0.55
  -8   3  12   10.49    0.78
   8  -3 -12    9.59    0.77
   8  -3 -12   11.96    0.91
  -8   3  12   12.45    0.89
  -8   3  11    1.46    0.36
   8  -3 -11    0.58    0.36
   8  -3 -11    0.42    0.38
  -8   3  11    0.22    0.37
  -8   3  10   69.11    3.75
   8  -3 -10   66.97    3.76
   8  -3 -10   58.56    3.70
  -8   3  10   71.50    3.78
  -8   3   9    0.05    0.46
   8  -3  -9    0.61    0.46
   8  -3  -9    0.20    0.46
  -8   3   8   87.82    4.40
   8  -3  -8   80.59    4.40
   8  -3  -7    7.24    0.79
   8  -3  -7    6.85    0.87
   8  -3  -6    2.77    0.55
  -8   3   6    2.90    0.79
  -8   3   6    2.46    0.54
  -8   3   5   29.68    2.19
   8  -3  -5   26.88    1.98
  -8   3   5   24.79    1.93
  -8   3   4   10.22    1.26
   8  -3  -4   10.50    1.13
  -8   3   4    8.60    1.08
   8  -3  -3   25.02    1.93
  -8   3   3   21.71    1.88
  -8   3   2    0.50    0.66
   8  -3  -2   -0.15    0.53
  -8   3   2    0.15    0.54
  -8   3   1   32.86    2.38
   8  -3  -1   29.73    2.27
  -8   3   1   30.41    2.27
   8  -3  -1   23.03    3.47
  -8   3   1   20.70    3.76
  -8   3   1   29.75    3.60
  -8   3   0    6.66    1.79
  -8   3   0    6.47    1.04
  -8   3   0    6.45    0.99
   8  -3   0    3.36    1.61
   8  -3   0    5.16    0.86
  -8   3   0    4.72    1.74
  -8   3  -1    1.46    1.04
  -8   3  -1    1.02    0.62
  -8   3  -1    1.07    1.33
   8  -3   1    0.39    0.59
  -8   3  -1    1.27    0.67
   8  -3   1    0.74    0.54
  -8   3  -2  194.87   10.72
  -8   3  -2  193.39   10.46
   8  -3   2  221.62   10.85
  -8   3  -2  215.88   10.87
   8  -3   2  211.07   10.70
   8  -3   2  175.56   12.98
  -8   3  -2  193.11   13.51
  -8   3  -3    4.05    1.54
  -8   3  -3    3.34    0.78
  -8   3  -3    3.79    0.71
   8  -3   3    4.97    0.86
  -8   3  -3    4.49    1.83
   8  -3   3    7.13    1.87
   8  -3   3    4.94    0.82
  -8   3  -4   50.95    3.38
  -8   3  -4   54.35    3.34
   8  -3   4   55.11    3.50
  -8   3  -4   54.57    5.49
  -8   3  -4   58.34    3.61
   8  -3   4   57.73    3.45
   8  -3   4   53.56    5.31
  -8   3  -4   50.32    5.07
   8  -3   4   58.98    3.48
  -8   3  -5    6.69    0.91
  -8   3  -5    8.52    0.99
   8  -3   5    8.18    1.03
  -8   3  -5    7.94    1.10
   8  -3   5    8.28    1.02
   8  -3   5    8.33    1.01
  -8   3  -6   49.42    3.05
   8  -3   6   50.91    3.09
  -8   3  -6   44.42    3.12
   8  -3   6   44.07    3.01
   8  -3   6   50.99    3.08
  -8   3  -7  212.47   10.82
   8  -3   7  203.07   10.78
  -8   3  -7  203.52   10.88
   8  -3   7  204.59   10.79
   8  -3   7  213.06   10.82
  -8   3  -8   28.81    2.13
   8  -3   8   31.87    2.08
  -8   3  -8   26.92    2.09
   8  -3   8   30.46    2.10
   8  -3   8   28.63    2.07
   8  -3   9    0.12    0.49
  -8   3  -9    0.19    0.59
   8  -3   9    0.70    0.38
  -8   3  -9    0.34    0.45
   8  -3   9    0.59    0.47
   8  -3  10    3.50    0.67
  -8   3 -10    3.57    0.77
   8  -3  10    2.93    0.65
  -8   3 -11   59.38    3.47
   8  -3  11   56.32    3.36
   8  -3  11   56.50    3.36
  -8   3 -12   13.35    1.21
   8  -3  12   11.62    1.08
   8  -3  12   11.96    1.05
   8  -3  13    0.33    0.36
   8  -3  13    0.35    0.39
   8  -3  14   59.70    3.20
   8  -3  14   54.20    3.13
   8  -3  15    9.58    0.76
   8  -3  15    7.77    0.69
  -8   3 -16    7.05    0.63
   8  -3  16    8.35    0.62
   8  -2 -13    2.27    0.39
  -8   2  13    1.44    0.29
   8  -2 -12    7.22    0.65
   8  -2 -12    6.76    0.74
  -8   2  12    7.05    0.69
  -8   2  11    7.09    0.74
   8  -2 -11    8.38    0.80
   8  -2 -11    8.07    0.86
  -8   2  11    7.88    0.81
  -8   2  10    6.50    0.77
   8  -2 -10    6.70    0.81
   8  -2 -10    5.42    0.81
  -8   2  10    5.51    0.78
  -8   2   9  125.30    6.45
   8  -2  -9  119.68    6.45
   8  -2  -9  109.83    6.40
  -8   2   8    7.50    1.02
   8  -2  -8    7.24    0.98
   8  -2  -8    6.88    0.92
  -8   2   7    2.89    0.78
   8  -2  -7    2.93    0.66
  -8   2   6   26.07    2.05
   8  -2  -6   22.74    1.73
  -8   2   6   23.13    1.77
   8  -2  -6   22.70    1.81
  -8   2   5    5.21    0.98
  -8   2   5    4.29    0.75
   8  -2  -5    3.74    0.72
   8  -2  -5    3.80    0.70
  -8   2   4   25.08    2.03
   8  -2  -4   19.98    1.73
  -8   2   4   22.42    1.79
   8  -2  -4   22.98    1.77
   8  -2  -4   24.94    3.29
  -8   2   4   15.98    3.23
  -8   2   3   -1.05    1.32
  -8   2   3    1.10    1.07
  -8   2   3    1.44    0.73
   8  -2  -3    0.65    0.47
   8  -2  -3    0.31    0.96
   8  -2  -3    0.98    0.54
  -8   2   2   35.38    4.66
   8  -2  -2   44.67    2.82
   8  -2  -2   38.38    2.66
   8  -2  -2   39.86    4.43
  -8   2   2   37.27    4.10
   8  -2  -1   26.49    2.04
  -8   2   1   21.15    3.37
   8  -2  -1   25.53    1.97
   8  -2  -1   31.13    3.79
  -8   2   1   22.86    3.17
   8  -2   0    5.87    1.80
  -8   2   0    6.18    1.90
  -8   2  -1   72.75    6.53
   8  -2   2   69.77    4.22
   8  -2   2   65.10    6.19
  -8   2  -2   67.40    6.30
   8  -2   2   69.85    4.14
  -8   2  -3   16.49    2.86
   8  -2   3   19.48    1.64
   8  -2   3   18.61    2.90
   8  -2   3   17.60    1.57
   8  -2   4    7.57    0.99
  -8   2  -4    4.79    1.78
   8  -2   4    7.79    1.01
   8  -2   4    8.65    1.97
   8  -2   5    3.09    0.70
  -8   2  -5    1.26    1.18
  -8   2  -5    3.26    1.35
   8  -2   5    2.39    0.69
   8  -2   5    4.82    1.56
   8  -2   6    3.27    0.74
  -8   2  -6    2.15    1.12
   8  -2   6    2.72    0.66
   8  -2   6    1.75    1.21
   8  -2   6    4.17    0.74
   8  -2   7    3.64    0.76
  -8   2  -7    2.37    1.20
   8  -2   7    4.30    0.73
   8  -2   7    3.37    1.34
   8  -2   7    3.95    0.76
   8  -2   8   43.88    2.73
  -8   2  -8   39.54    2.76
   8  -2   8   42.17    2.75
   8  -2   8   41.45    2.74
   8  -2   9    1.94    0.64
  -8   2  -9    2.04    0.73
   8  -2   9    2.79    0.57
  -8   2  -9    2.29    0.63
   8  -2   9    2.09    0.62
  -8   2 -10   12.81    1.33
  -8   2 -10   11.60    1.18
   8  -2  10   11.66    1.19
   8  -2  10   12.24    1.21
  -8   2 -11   62.28    3.59
   8  -2  11   57.64    3.46
   8  -2  11   52.59    3.40
  -8   2 -12   29.06    2.08
   8  -2  12   26.90    1.96
   8  -2  12   28.26    1.97
   8  -2  13   30.01    2.04
   8  -2  13   30.21    2.03
  -8   2 -14    9.12    1.00
   8  -2  14    9.77    0.95
   8  -2  14    9.71    0.93
  -8   2 -15    8.68    0.90
   8  -2  15    9.41    0.85
   8  -2  15    8.08    0.81
   8  -2  16    5.56    0.61
   8  -2  16    5.38    0.60
   8  -2  17    0.41    0.22
  -8   2 -17    0.20    0.22
   8  -2  17    0.42    0.25
   8  -1 -14    0.70    0.27
   8  -1 -13    0.07    0.33
   8  -1 -12   20.24    1.37
   8  -1 -12   21.15    1.51
  -8   1  12   20.86    1.37
  -8   1  11    0.32    0.29
   8  -1 -11    0.04    0.36
   8  -1 -11    0.32    0.41
  -8   1  11   -0.21    0.38
  -8   1  10   17.29    1.35
   8  -1 -10   17.64    1.41
   8  -1 -10   17.09    1.45
  -8   1  10   14.99    1.33
  -8   1   9    1.25    0.58
   8  -1  -9    2.66    0.65
   8  -1  -9    1.21    0.55
  -8   1   8    2.91    0.75
   8  -1  -8    1.62    0.59
   8  -1  -8    1.71    0.62
  -8   1   7   52.92    3.42
   8  -1  -7   54.79    3.45
   8  -1  -7   51.37    3.29
  -8   1   6    4.99    0.94
   8  -1  -6    4.00    0.63
  -8   1   6    3.70    0.69
   8  -1  -6    4.27    0.74
  -8   1   5   63.20    3.89
   8  -1  -5   60.20    3.60
   8  -1  -5   50.71    5.73
   8  -1  -5   64.52    3.66
   8  -1  -5   55.04    3.57
   8  -1  -5   58.76    5.22
  -8   1   4    0.58    0.64
   8  -1  -4    0.13    0.46
   8  -1  -4    0.84    0.92
   8  -1  -4    0.51    0.50
   8  -1  -4    0.06    0.40
   8  -1  -3    2.44    0.66
   8  -1  -3    3.87    0.73
   8  -1  -3    3.34    0.70
   8  -1  -2   34.22    2.37
  -8   1   2   31.30    4.03
   8  -1  -2   30.88    2.26
   8  -1  -2   37.69    4.06
   8  -1  -2   31.94    2.28
   8  -1  -1   18.06    1.58
  -8   1   1   16.90    2.87
   8  -1  -1   18.24    1.55
   8  -1  -1   22.60    3.05
   8  -1  -1   17.22    1.52
   8  -1   0  140.36    7.20
   8  -1   0  130.35    7.05
   8  -1   0  125.68    9.30
   8  -1   0  119.18    7.01
   8  -1   1   11.94    1.22
   8  -1   1   11.82    1.18
  -8   1  -1   11.11    2.25
   8  -1   2    4.73    0.87
   8  -1   2    8.34    1.01
  -8   1  -2    6.78    1.86
   8  -1   2    6.97    1.77
   8  -1   2    7.95    0.93
   8  -1   3   63.42    4.09
  -8   1  -3   72.46    6.08
   8  -1   3   78.99    4.25
   8  -1   3   67.90    4.08
   8  -1   3   70.37    6.10
   8  -1   4   18.90    1.65
   8  -1   4   22.04    1.73
   8  -1   4   17.70    2.80
   8  -1   4   20.83    1.66
  -8   1  -4   18.74    2.76
   8  -1   5   70.61    4.14
  -8   1  -5   62.64    5.74
   8  -1   5   68.75    4.08
   8  -1   5   68.47    5.92
   8  -1   5   69.83    4.13
   8  -1   6   14.32    1.38
   8  -1   6   18.51    2.65
   8  -1   6   15.59    1.44
   8  -1   7  118.63    6.59
   8  -1   7  106.20    8.42
   8  -1   7  127.44    6.68
   8  -1   8    3.50    0.76
   8  -1   8    3.55    0.65
   8  -1   8    5.10    1.48
   8  -1   9   49.20    2.93
   8  -1   9   48.37    3.03
   8  -1  10   46.38    2.77
  -8   1 -10   39.28    2.85
   8  -1  10   48.37    2.95
   8  -1  11  107.46    5.42
   8  -1  11  112.47    5.46
  -8   1 -12    8.70    0.92
   8  -1  12   11.03    1.12
   8  -1  12    9.32    1.05
  -8   1 -13   14.76    1.39
  -8   1 -13   12.00    1.12
   8  -1  13   15.42    1.32
   8  -1  13   12.78    1.25
   8  -1  14    4.00    0.69
  -8   1 -14    4.51    0.80
  -8   1 -14    2.70    0.57
   8  -1  14    4.48    0.72
  -8   1 -15   12.91    1.17
  -8   1 -15   10.45    0.98
   8  -1  15   11.63    1.10
   8  -1  15   12.55    1.09
   8  -1  16    2.69    0.54
  -8   1 -16    3.63    0.58
  -8   1 -16    3.04    0.50
   8  -1  16    3.56    0.57
  -8   1 -17   46.20    2.68
   8  -1  17   50.84    2.78
   8  -1  17   49.03    2.75
   8  -1  18    4.51    0.49
   8  -1  18    4.14    0.45
   8   0 -14   -0.09    0.25
   8   0 -14    0.06    0.26
   8   0 -13   72.48    3.93
   8   0 -13   70.10    3.92
   8   0 -12    0.03    0.28
   8   0 -12    0.86    0.45
   8   0 -11    1.67    0.47
   8   0 -11    1.61    0.51
  -8   0  11    1.57    0.39
   8   0 -11    0.63    0.43
  -8   0  10    5.76    0.76
   8   0 -10    7.98    0.88
   8   0 -10    5.28    0.83
  -8   0  10    6.84    0.80
   8   0 -10    4.73    0.74
  -8   0   9    2.33    0.62
   8   0  -9    2.87    0.66
   8   0  -9    1.50    0.59
   8   0  -9    1.87    0.56
  -8   0   8  112.89    6.15
   8   0  -8  121.46    6.20
   8   0  -8  113.03    6.13
   8   0  -8   97.40    5.92
  -8   0   7    3.69    0.82
   8   0  -7    2.75    0.76
   8   0  -7    3.91    0.75
   8   0  -7    3.23    0.69
  -8   0   6   72.11    4.12
   8   0  -6   71.49    4.09
   8   0  -6   61.83    3.83
   8   0  -6   57.74    3.76
   8   0  -5   14.23    2.42
   8   0  -5   14.16    1.25
   8   0  -5   11.48    1.31
   8   0  -5   11.55    1.19
   8   0  -5   10.31    2.03
   8   0  -4    2.79    0.73
   8   0  -4    2.49    0.59
   8   0  -4    2.37    1.36
   8   0  -4    4.52    1.35
   8   0  -4    2.79    0.63
   8   0  -4    3.83    0.66
   8   0  -3   42.50    2.78
   8   0  -3   44.05    2.78
   8   0  -3   41.33    4.27
   8   0  -3   41.40    2.81
   8   0  -2   11.19    1.16
   8   0  -2   11.29    1.13
   8   0  -2   10.68    2.18
   8   0  -2   10.93    1.22
   8   0  -1   71.41    4.07
   8   0  -1   64.12    3.95
   8   0  -1   61.68    5.70
   8   0  -1   69.94    4.11
   8   0   0    8.65    1.08
   8   0   0    8.64    1.01
   8   0   0    7.32    0.90
   8   0   0    6.56    1.76
  -8   0   0    8.55    1.85
   8   0   1    1.27    0.51
  -8   0  -1    1.04    0.93
   8   0   1    0.43    0.54
   8   0   1    0.61    0.46
   8   0   2   32.13    2.46
   8   0   2   39.79    2.50
   8   0   2   34.62    2.34
   8   0   2   42.09    4.18
  -8   0  -2   27.25    3.41
   8   0   2   34.39    2.39
   8   0   3    4.71    0.79
   8   0   3    5.10    0.88
  -8   0  -3    6.13    1.56
   8   0   3    5.58    0.84
   8   0   3    5.93    1.70
   8   0   3    5.66    0.82
  -8   0  -4   73.71    5.98
   8   0   4   80.60    4.47
   8   0   4   78.74    4.42
   8   0   4   83.40    6.42
   8   0   4   68.90    4.38
   8   0   5  111.64    6.10
  -8   0  -5  105.10    7.83
   8   0   5  107.73    6.05
   8   0   5  119.86    8.18
   8   0   6   13.68    1.29
   8   0   6   11.51    2.17
   8   0   6   15.15    1.33
   8   0   7    5.93    0.84
   8   0   7    7.79    0.96
   8   0   7    7.84    1.82
   8   0   8   53.67    3.28
   8   0   8   54.91    3.35
   8   0   8   47.64    4.69
   8   0   9  305.55   15.71
   8   0   9  320.48   15.85
   8   0   9  290.82   17.72
   8   0  10   27.10    3.50
   8   0  10   27.73    2.09
   8   0  10   28.70    2.10
   8   0  11   15.72    2.65
   8   0  11   16.04    1.45
   8   0  12    3.44    0.73
   8   0  13    0.07    0.51
   8   0  14    6.03    0.87
  -8   0 -14    5.61    0.90
  -8   0 -14    5.13    0.74
  -8   0 -15    7.94    0.95
  -8   0 -15    6.27    0.82
   8   0  15    7.86    0.92
  -8   0 -16   26.51    1.87
  -8   0 -16   26.33    1.82
   8   0  16   27.88    1.90
   8   0  16   28.94    1.91
   8   0  17    2.95    0.54
  -8   0 -17    2.33    0.47
  -8   0 -17    1.80    0.47
   8   0  17    3.01    0.55
  -8   0 -18   95.31    5.31
   8   0  18  106.62    5.38
   8   0  18  105.95    5.37
  -8   0 -19    6.81    0.61
   8   0  19    7.31    0.64
   8   0  19    6.64    0.59
   8   1 -14   32.28    2.05
   8   1 -14   37.75    2.06
   8   1 -13    6.30    0.70
   8   1 -13    6.10    0.68
   8   1 -13    4.48    0.62
   8   1 -12    0.34    0.31
   8   1 -12    0.77    0.40
   8   1 -12    0.47    0.51
   8   1 -11    5.90    0.73
   8   1 -11    5.63    0.79
   8   1 -11    5.70    0.79
   8   1 -10    1.10    0.46
   8   1 -10    0.18    0.46
   8   1 -10    0.32    0.50
  -8  -1   9    4.87    0.76
   8   1  -9    5.93    0.83
   8   1  -9    5.02    0.81
  -8  -1   9    4.63    0.71
   8   1  -9    4.90    0.78
  -8  -1   8    7.06    0.98
   8   1  -8    8.06    1.02
   8   1  -8    7.68    0.98
   8   1  -8    7.58    1.01
  -8  -1   7  273.05   13.86
   8   1  -7  284.09   13.85
   8   1  -7  258.96   13.74
   8   1  -7  256.79   13.72
   8   1  -6   17.93    1.56
   8   1  -6   16.57    1.45
   8   1  -6   14.50    1.45
   8   1  -5   16.41    1.43
   8   1  -5   12.18    1.22
   8   1  -5   16.45    2.39
   8   1  -5   12.73    1.35
   8   1  -4   18.02    1.51
   8   1  -4   18.46    1.50
   8   1  -4   18.59    2.68
   8   1  -4   19.22    1.64
   8   1  -4   19.65    1.66
   8   1  -3   11.74    1.14
   8   1  -3   13.29    1.20
   8   1  -3   12.91    2.21
   8   1  -3   11.73    1.10
   8   1  -3   11.75    1.26
   8   1  -3   12.40    1.30
   8   1  -2   48.95    3.09
   8   1  -2   49.61    3.08
   8   1  -2   51.38    3.19
   8   1  -2   49.32    3.18
   8   1  -2   45.20    4.57
   8   1  -2   51.77    3.25
   8   1  -1    5.97    0.95
   8   1  -1    6.94    0.89
   8   1  -1    7.06    0.86
   8   1  -1    5.05    1.51
   8   1  -1    7.72    0.96
   8   1   0    2.64    0.78
   8   1   0    2.14    0.60
   8   1   0    2.95    1.24
   8   1   0    1.62    0.52
   8   1   0    2.74    0.66
   8   1   1   14.50    1.41
   8   1   1   15.55    1.24
   8   1   1   13.66    2.30
   8   1   1   12.63    1.34
   8   1   1   10.18    1.15
   8   1   2   35.19    2.72
   8   1   2   40.34    2.62
   8   1   2   43.12    2.59
   8   1   2   38.35    2.72
   8   1   2   40.42    2.62
   8   1   3  130.63    6.78
   8   1   3  123.92    6.70
   8   1   3  136.05    8.91
   8   1   3  115.23    6.82
   8   1   3  123.57    6.73
   8   1   4   36.30    2.40
  -8  -1  -4   33.27    3.50
   8   1   4   31.87    2.22
   8   1   4   38.37    2.39
   8   1   4   36.03    3.91
   8   1   4   36.03    2.40
   8   1   5    8.92    0.97
   8   1   5    7.77    0.94
   8   1   5    8.49    1.84
   8   1   5    8.26    0.98
   8   1   6    2.72    0.62
   8   1   6    2.23    0.68
   8   1   6    2.72    0.62
   8   1   6    3.71    1.26
   8   1   6    1.68    0.54
   8   1   7   11.21    1.18
   8   1   7   10.56    1.10
   8   1   7   10.66    1.13
   8   1   7   13.93    2.22
   8   1   7   11.01    1.15
   8   1   8    3.99    0.74
   8   1   8    4.91    0.77
   8   1   8    2.71    1.09
   8   1   8    6.23    1.46
   8   1   8    5.41    0.79
   8   1   9   18.65    2.58
   8   1   9   17.31    1.48
   8   1   9   15.65    2.40
   8   1   9   16.18    1.49
   8   1  10  139.20   10.72
   8   1  10  157.93   10.78
   8   1  11   35.43    4.21
   8   1  11   47.49    2.96
   8   1  12    9.63    2.06
   8   1  12    9.64    2.00
   8   1  12    9.22    1.08
   8   1  13    1.86    0.62
   8   1  14   44.97    2.86
   8   1  14   42.72    2.84
  -8  -1 -15   12.17    1.21
   8   1  15   10.62    1.17
   8   1  15   14.02    1.27
  -8  -1 -16   31.54    2.13
  -8  -1 -16   31.81    2.14
   8   1  16   32.03    2.18
  -8  -1 -17   14.44    1.19
  -8  -1 -17   15.50    1.28
   8   1  17   16.86    1.32
   8   1  18    5.41    0.69
  -8  -1 -18    5.65    0.70
   8   1  19    0.13    0.29
  -8  -1 -19    0.03    0.33
   8   1  20    1.02    0.26
  -8  -1 -20    1.19    0.29
   8   2 -14    0.29    0.27
   8   2 -13    7.78    0.77
   8   2 -13    7.38    0.76
   8   2 -13    6.13    0.78
   8   2 -12    0.81    0.34
   8   2 -12    0.64    0.40
   8   2 -12    0.66    0.45
   8   2 -12    0.77    0.62
   8   2 -11   33.90    2.20
   8   2 -11   36.34    2.32
   8   2 -11   34.74    2.32
   8   2 -10   23.50    1.68
   8   2 -10   23.59    1.74
   8   2 -10   19.99    1.70
   8   2  -9    7.59    0.90
   8   2  -9    6.64    0.90
   8   2  -9    5.44    0.90
  -8  -2   8   14.35    1.33
   8   2  -8   14.54    1.34
   8   2  -8   13.24    1.30
   8   2  -8   14.01    1.38
  -8  -2   7    8.43    1.03
   8   2  -7    7.32    0.97
   8   2  -7    6.61    0.91
   8   2  -7    6.66    1.00
   8   2  -6    5.47    0.85
   8   2  -6    6.33    0.85
   8   2  -6    5.27    0.94
   8   2  -5   48.21    4.47
   8   2  -5   54.57    3.33
   8   2  -5   50.58    3.21
   8   2  -5   52.70    3.39
   8   2  -5   54.62    3.39
   8   2  -4  106.43    8.01
   8   2  -4  121.46    6.44
   8   2  -4  116.07    6.29
   8   2  -4  106.92    6.44
   8   2  -4  122.41    6.51
   8   2  -3   34.00    2.30
   8   2  -3   34.11    2.29
   8   2  -3   37.58    2.58
   8   2  -3   37.97    3.82
   8   2  -3   36.94    2.55
   8   2  -2    3.31    0.78
   8   2  -2    3.88    0.70
   8   2  -2    3.71    0.65
   8   2  -2    4.50    1.45
   8   2  -2    4.73    0.86
   8   2  -1   14.95    1.52
   8   2  -1   14.17    1.25
   8   2  -1   15.34    1.30
   8   2  -1   16.69    1.39
   8   2  -1   16.16    2.42
   8   2  -1   15.60    1.53
   8   2   0   19.14    1.70
   8   2   0   16.68    1.44
   8   2   0   16.64    1.40
   8   2   0   18.44    1.42
   8   2   0   17.89    1.48
   8   2   0   16.61    1.60
   8   2   0   20.59    2.67
   8   2   1   12.03    1.35
   8   2   1   11.59    1.09
   8   2   1   11.67    1.07
   8   2   1   10.49    1.07
   8   2   1   11.79    2.11
   8   2   1   10.52    1.29
   8   2   2   96.05    5.74
   8   2   2  104.67    5.49
   8   2   2   99.04    5.47
   8   2   2   99.89    5.80
   8   2   2   98.25    5.51
   8   2   3   82.24    4.56
   8   2   3   78.04    4.51
   8   2   3   81.61    4.48
   8   2   3   78.35    4.43
   8   2   3   78.25    4.79
   8   2   3   72.03    6.11
   8   2   3   77.92    4.50
   8   2   4   36.27    2.61
   8   2   4   42.84    2.50
   8   2   4   34.18    2.30
   8   2   4   37.63    2.41
   8   2   4   37.51    2.72
   8   2   4   37.81    3.96
   8   2   4   35.25    2.43
   8   2   4   37.17    2.45
   8   2   5    4.18    0.74
   8   2   5    5.34    0.93
   8   2   5    5.89    0.80
   8   2   5    5.54    0.77
   8   2   5    3.86    1.10
   8   2   5    5.43    1.43
   8   2   5    4.05    0.69
   8   2   5    4.73    0.97
   8   2   6    0.31    0.50
   8   2   6    0.23    0.58
   8   2   6   -0.06    0.44
   8   2   6    0.42    0.42
   8   2   6    1.61    0.86
   8   2   6   -0.26    0.92
   8   2   6    0.59    0.41
   8   2   7   63.63    3.91
   8   2   7   66.08    3.73
   8   2   7   51.55    4.88
   8   2   7   64.85    3.73
   8   2   7   66.93    5.46
   8   2   7   58.43    3.71
   8   2   8    3.75    0.74
   8   2   8    3.58    0.79
   8   2   8    1.43    1.03
   8   2   8    4.12    0.71
   8   2   8    4.82    1.42
   8   2   9   12.85    1.37
   8   2   9   14.43    2.38
   8   2   9    9.67    1.99
   8   2   9   11.74    1.22
   8   2   9   12.42    2.13
   8   2   9   14.86    1.33
   8   2  10   31.63    2.41
   8   2  10   39.13    4.15
   8   2  10   34.49    3.84
   8   2  10   32.54    2.35
   8   2  10   36.90    2.44
   8   2  10   36.23    3.65
   8   2  11    1.76    0.65
   8   2  11    2.25    0.71
   8   2  11    1.79    1.16
   8   2  11    2.36    0.61
   8   2  12    6.37    0.92
   8   2  12    5.63    1.62
   8   2  12    6.88    0.91
   8   2  13   10.96    1.15
   8   2  13    8.79    1.10
   8   2  14   12.33    1.27
   8   2  15   -0.26    0.46
  -8  -2 -16   -0.30    0.48
   8   2  16    0.66    0.47
  -8  -2 -17    2.28    0.52
   8   2  17    2.83    0.63
  -8  -2 -18    0.32    0.47
   8   2  18    0.64    0.42
  -8  -2 -19   21.29    1.57
   8   2  19   22.94    1.54
   8   2  19   25.47    1.60
  -8  -2 -20   19.61    1.33
   8   2  20   20.93    1.31
   8   2  20   20.18    1.32
   8   3 -14   24.53    1.54
   8   3 -13    2.18    0.44
   8   3 -13    3.17    0.66
   8   3 -12   53.36    3.13
   8   3 -12   57.27    3.26
   8   3 -12   65.76    3.35
   8   3 -12   55.04    3.34
   8   3 -11   15.64    1.20
   8   3 -11   15.39    1.26
   8   3 -11   15.47    1.28
   8   3 -11   13.73    1.34
   8   3 -10    5.04    0.69
   8   3 -10    4.05    0.66
   8   3 -10    5.21    0.75
   8   3 -10    4.34    0.81
   8   3  -9    3.81    0.69
   8   3  -9    4.85    0.79
   8   3  -9    5.22    0.90
   8   3  -8    0.93    0.51
   8   3  -8    0.44    0.49
   8   3  -8    0.21    0.57
  -8  -3   7   14.84    1.47
   8   3  -7   20.19    1.55
   8   3  -7   17.54    1.47
   8   3  -7   17.92    1.63
   8   3  -6   63.57    3.62
   8   3  -6   55.08    3.49
   8   3  -6   56.32    3.65
   8   3  -5   22.33    1.81
   8   3  -5   22.96    1.75
   8   3  -5   22.70    1.94
   8   3  -5   25.22    1.97
   8   3  -4    1.13    0.66
   8   3  -4    1.18    0.55
   8   3  -4    0.46    0.41
   8   3  -4    2.33    0.99
   8   3  -4    1.39    0.75
   8   3  -3   73.04    5.87
   8   3  -3   73.00    4.23
   8   3  -3   73.90    4.26
   8   3  -3   74.09    4.55
   8   3  -3   83.39    4.59
   8   3  -2    4.27    0.88
   8   3  -2    3.55    0.64
   8   3  -2    3.15    0.67
   8   3  -2    2.68    0.57
   8   3  -2    5.11    1.36
   8   3  -2    3.71    0.87
   8   3  -1    6.89    1.07
   8   3  -1    7.57    0.88
   8   3  -1    8.26    0.93
   8   3  -1    8.30    1.72
   8   3  -1    8.49    1.14
   8   3   0   -0.33    0.71
   8   3   0    0.28    0.45
   8   3   0    0.53    0.41
   8   3   0    0.99    0.96
   8   3   0    0.57    0.67
   8   3   1  101.09    5.60
   8   3   1   94.91    5.26
   8   3   1   91.70    5.15
   8   3   1   97.05    5.26
   8   3   1   94.95    5.59
   8   3   1   90.15    6.94
   8   3   2   31.90    2.39
   8   3   2   27.15    1.91
   8   3   2   30.40    2.00
   8   3   2   31.24    2.39
   8   3   2   28.35    1.98
   8   3   3    1.36    0.48
   8   3   3    1.61    0.72
   8   3   3    1.46    0.49
   8   3   3    1.88    0.48
   8   3   3    1.72    0.43
   8   3   3    1.26    0.98
   8   3   3    1.06    0.71
   8   3   4    5.52    0.74
   8   3   4    5.86    1.02
   8   3   4    6.61    0.83
   8   3   4    5.32    1.30
   8   3   4    5.35    0.67
   8   3   4    4.49    0.65
   8   3   4    4.55    1.43
   8   3   4    4.95    1.05
   8   3   5   17.04    1.65
   8   3   5   17.54    1.43
   8   3   5   13.92    2.10
   8   3   5   16.94    1.34
   8   3   5   17.81    2.61
   8   3   5   17.08    1.72
   8   3   5   16.70    1.39
   8   3   6   33.64    2.37
   8   3   6   28.76    2.05
   8   3   6   27.15    3.12
   8   3   6   27.42    1.98
   8   3   6   36.03    3.67
   8   3   6   28.90    2.05
   8   3   7   61.73    4.96
   8   3   7   53.46    3.53
   8   3   7   56.60    3.30
   8   3   7   51.35    4.62
   8   3   7   53.12    3.24
   8   3   7   50.53    3.26
   8   3   7   52.38    4.79
   8   3   8   84.98    6.58
   8   3   8   88.34    5.14
   8   3   8   87.73    4.88
   8   3   8   74.59    6.33
   8   3   8   84.89    4.84
   8   3   8   84.55    4.88
   8   3   8   99.16    6.86
   8   3   9    6.36    0.89
   8   3   9    5.76    1.03
   8   3   9    7.37    0.87
   8   3   9    5.32    1.66
   8   3   9    6.47    1.68
   8   3   9    7.03    0.86
   8   3   9    6.42    1.60
   8   3  10    6.75    0.93
   8   3  10    8.72    1.17
   8   3  10    7.92    0.90
   8   3  10    8.09    1.80
   8   3  10    8.02    1.89
   8   3  10    7.12    0.92
   8   3  10    7.63    1.60
   8   3  11  183.11   10.55
   8   3  11  202.22   12.74
   8   3  11  206.04   10.43
   8   3  11  214.13   10.49
   8   3  12   44.17    3.11
   8   3  12   53.10    4.90
   8   3  12   42.94    4.48
   8   3  12   45.87    2.96
   8   3  12   45.70    3.00
   8   3  13   32.91    2.66
   8   3  13   42.98    4.30
   8   3  13   42.29    2.66
   8   3  13   39.95    2.65
   8   3  14    6.34    1.01
   8   3  14    6.89    0.93
   8   3  14    8.16    1.00
   8   3  15    2.33    0.67
   8   3  15    1.72    0.65
   8   3  15    2.98    0.63
   8   3  16    1.80    0.59
   8   3  16    1.87    0.58
   8   3  17   12.69    1.17
   8   3  17   12.60    1.17
   8   3  18   18.72    1.44
   8   3  18   19.61    1.47
  -8  -3 -19   15.71    1.22
   8   3  19   14.27    1.12
  -8  -3 -20   28.82    1.78
   8   3  20   27.47    1.70
  -8  -3 -21    0.93    0.28
   8   4 -13    1.17    0.62
   8   4 -12   10.73    0.93
   8   4 -12   12.92    1.04
   8   4 -12   11.60    1.19
   8   4 -11    0.52    0.36
   8   4 -11    0.89    0.38
   8   4 -11    0.62    0.44
   8   4 -11    0.61    0.61
   8   4 -10    1.02    0.44
   8   4 -10    1.06    0.40
   8   4 -10   -0.16    0.48
   8   4 -10    0.53    0.57
   8   4  -9   11.71    1.09
   8   4  -9   10.26    1.00
   8   4  -9   10.13    1.05
   8   4  -9   10.14    1.19
   8   4  -8   10.50    1.08
   8   4  -8    8.60    0.94
   8   4  -8    9.43    1.03
   8   4  -8   10.85    1.23
   8   4  -7   11.29    1.12
   8   4  -7   11.74    1.13
   8   4  -7    9.73    1.28
   8   4  -6    4.64    0.76
   8   4  -6    3.26    0.69
   8   4  -6    3.29    0.89
   8   4  -5  139.47    7.39
   8   4  -5  137.17    7.33
   8   4  -5  133.38    7.54
   8   4  -4   47.85    4.36
   8   4  -4   41.74    2.78
   8   4  -4   51.91    3.04
   8   4  -4   49.78    2.95
   8   4  -4   47.48    3.19
   8   4  -3   40.46    3.96
   8   4  -3   39.75    2.53
   8   4  -3   39.39    2.53
   8   4  -3   42.65    2.91
   8   4  -2    2.63    0.85
   8   4  -2    2.64    0.61
   8   4  -2    2.64    0.63
   8   4  -2    2.55    0.53
   8   4  -2    2.88    1.06
   8   4  -2    2.75    0.82
   8   4  -1    3.92    0.95
   8   4  -1    4.60    0.73
   8   4  -1    5.33    0.75
   8   4  -1    4.24    0.63
   8   4  -1    5.83    1.44
   8   4  -1    5.53    1.07
   8   4   0  132.09    7.15
   8   4   0  114.65    8.44
   8   4   0  124.86    6.82
   8   4   0  122.98    6.80
   8   4   0  137.77    7.26
   8   4   1   11.87    1.37
   8   4   1    9.93    1.04
   8   4   1    7.94    0.92
   8   4   1   10.13    1.94
   8   4   1    7.97    1.29
   8   4   2    5.28    1.01
   8   4   2    3.23    0.89
   8   4   2    4.97    1.25
   8   4   2    4.39    0.65
   8   4   2    4.05    1.01
   8   4   3    2.43    0.52
   8   4   3    1.77    0.75
   8   4   3    3.13    0.92
   8   4   3    2.13    1.06
   8   4   3    2.69    0.52
   8   4   3    1.14    0.87
   8   4   4   58.59    4.92
   8   4   4   57.90    3.51
   8   4   4   43.14    3.96
   8   4   4   53.35    3.19
   8   4   4   48.62    4.46
   8   4   4   53.64    3.03
   8   4   4   54.65    3.64
   8   4   4   45.17    3.03
   8   4   5   99.39    7.19
   8   4   5  107.76    5.71
   8   4   5   90.56    6.49
   8   4   5  101.16    5.35
   8   4   5   91.15    6.82
   8   4   5   90.11    5.07
   8   4   5   90.44    5.20
   8   4   6  158.01    9.80
   8   4   6  156.12    8.07
   8   4   6  142.89    9.13
   8   4   6  156.47    7.74
   8   4   6  147.26    9.52
   8   4   6  131.75    7.48
   8   4   6  137.48    7.59
   8   4   7   78.92    5.99
   8   4   7   76.23    4.57
   8   4   7   76.30    5.72
   8   4   7   74.75    4.19
   8   4   7   67.39    5.72
   8   4   7   68.50    4.05
   8   4   7   69.30    4.13
   8   4   8   13.26    1.55
   8   4   8   12.47    1.21
   8   4   8    8.60    1.95
   8   4   8   16.09    2.35
   8   4   8   13.91    1.18
   8   4   8    8.28    1.90
   8   4   8   14.30    1.26
   8   4   9    4.37    0.73
   8   4   9    6.47    1.07
   8   4   9    5.70    0.78
   8   4   9    4.45    1.40
   8   4   9    4.74    1.41
   8   4   9    3.77    0.66
   8   4   9    3.70    1.27
   8   4  10    2.01    0.60
   8   4  10    2.42    0.91
   8   4  10    2.54    0.63
   8   4  10    1.87    1.21
   8   4  10    4.73    1.36
   8   4  10    1.92    0.52
   8   4  10    3.37    1.22
   8   4  11   60.78    4.15
   8   4  11   61.62    5.26
   8   4  11   64.70    5.64
   8   4  11   61.63    3.70
   8   4  11   65.17    5.63
   8   4  11   68.36    3.87
   8   4  11   68.95    3.93
   8   4  12  138.54    9.48
   8   4  12  134.38    7.26
   8   4  12  143.49    7.34
   8   4  13  161.42   11.03
   8   4  13  143.96   10.75
   8   4  13  169.95    8.85
   8   4  13  170.46    8.88
   8   4  14    8.94    1.02
   8   4  14    8.96    1.06
   8   4  15    8.13    0.97
   8   4  15    8.64    1.02
   8   4  16   54.42    3.24
   8   4  16   61.07    3.36
   8   4  17   11.91    1.24
   8   4  17   12.99    1.18
   8   4  18   22.76    1.60
   8   4  18   22.82    1.64
   8   4  19    3.80    0.58
   8   4  19    3.76    0.54
  -8  -4 -20    4.39    0.61
   8   4  20    3.97    0.48
   8   4  20    4.83    0.57
   8   4  21    2.48    0.34
  -8  -4 -21    1.72    0.36
   8   5 -13   11.26    1.04
   8   5 -12    0.96    0.31
   8   5 -12    1.46    0.76
   8   5 -11    7.96    0.82
   8   5 -11    7.13    0.95
   8   5 -10    4.88    0.65
   8   5 -10    4.48    0.69
   8   5 -10    4.68    0.80
   8   5  -9    8.61    0.92
   8   5  -9    8.71    0.94
   8   5  -9    8.56    1.08
   8   5  -8   24.39    1.69
   8   5  -8   18.91    1.49
   8   5  -8   22.15    1.65
   8   5  -8   21.93    1.81
   8   5  -7   30.32    1.95
   8   5  -7   28.04    1.89
   8   5  -7   27.49    2.10
   8   5  -6    8.42    0.96
   8   5  -6    6.64    0.78
   8   5  -6    8.41    0.95
   8   5  -6    7.01    1.12
   8   5  -5   22.40    1.74
   8   5  -5   25.09    1.89
   8   5  -5   32.27    2.07
   8   5  -5   33.68    2.06
   8   5  -5   32.20    2.32
   8   5  -4    0.47    0.72
   8   5  -4    0.94    0.84
   8   5  -4    1.14    0.43
   8   5  -4    0.81    0.52
   8   5  -4    0.47    0.43
   8   5  -4    0.83    0.78
   8   5  -3  126.87    9.54
   8   5  -3  135.00    7.78
   8   5  -3  157.86    7.90
   8   5  -3  156.36    8.25
   8   5  -3  160.44    8.19
   8   5  -2   13.54    2.20
   8   5  -2   12.54    1.20
   8   5  -2   12.94    1.22
   8   5  -2   11.43    1.11
   8   5  -2   14.24    1.55
   8   5  -2   13.78    1.46
   8   5  -1  117.65    6.38
   8   5  -1  107.51    7.79
   8   5  -1  111.80    6.05
   8   5  -1  114.12    6.06
   8   5  -1  101.15    5.90
   8   5  -1  116.76    6.45
   8   5   0    3.17    0.92
   8   5   0    2.03    1.02
   8   5   0    2.72    0.64
   8   5   0    3.70    0.66
   8   5   0    3.40    0.56
   8   5   0    4.02    1.38
   8   5   0    4.33    1.01
   8   5   1   36.54    3.93
   8   5   1   39.63    2.56
   8   5   1   32.21    3.55
   8   5   1   39.37    2.47
   8   5   1   38.65    2.92
   8   5   2    1.81    0.79
   8   5   2    2.55    1.18
   8   5   2    1.81    0.61
   8   5   2    1.54    0.48
   8   5   2    1.18    0.91
   8   5   3  201.46   10.16
   8   5   3  170.86   11.51
   8   5   3  181.51    9.62
   8   5   3  189.81   10.27
   8   5   4   47.55    3.18
   8   5   4   53.62    4.58
   8   5   4   42.76    2.83
   8   5   4   48.52    4.48
   8   5   4   42.11    2.65
   8   5   4   43.55    3.32
   8   5   5   57.35    3.59
   8   5   5   48.63    4.68
   8   5   5   49.44    4.05
   8   5   5   55.96    3.25
   8   5   5   41.45    4.43
   8   5   5   47.95    2.93
   8   5   5   51.15    3.66
   8   5   6   20.49    1.98
   8   5   6   22.33    2.89
   8   5   6   19.68    2.38
   8   5   6   22.89    1.74
   8   5   6   20.66    2.83
   8   5   7   54.05    3.57
   8   5   7   50.26    4.68
   8   5   7   53.89    4.42
   8   5   7   52.00    3.15
   8   5   7   56.07    4.88
   8   5   7   44.75    2.96
   8   5   8    3.03    0.57
   8   5   8    3.92    1.01
   8   5   8    2.62    1.25
   8   5   8    2.48    0.63
   8   5   8    3.56    1.22
   8   5   8    0.77    0.85
   8   5   9    7.45    1.26
   8   5   9    8.16    0.97
   8   5   9    6.10    1.62
   8   5   9    8.07    1.77
   8   5   9    7.93    0.91
   8   5   9    8.87    1.80
   8   5  10   71.18    5.59
   8   5  10   68.69    5.58
   8   5  10   66.95    3.85
   8   5  10   63.64    5.56
   8   5  10   62.58    3.75
   8   5  10   65.54    3.86
   8   5  11   10.02    1.82
   8   5  11    8.09    0.92
   8   5  11    6.28    1.67
   8   5  11    9.78    1.88
   8   5  11    7.82    0.89
   8   5  11    9.39    1.01
   8   5  12   25.37    3.30
   8   5  12   22.96    1.67
   8   5  12   20.32    3.00
   8   5  12   24.98    1.79
   8   5  12   24.45    1.84
   8   5  13   13.72    2.44
   8   5  13   15.89    1.38
   8   5  13   18.00    1.48
   8   5  14    3.71    0.74
   8   5  14    5.02    0.74
   8   5  15   80.46    4.55
   8   5  15   81.36    4.62
   8   5  16    0.46    0.48
   8   5  16    1.54    0.46
   8   5  17   33.76    2.21
   8   5  17   36.64    2.30
   8   5  18    0.86    0.47
   8   5  18    0.17    0.51
   8   5  18    0.79    0.38
   8   5  19    0.68    0.39
   8   5  19    1.15    0.44
   8   5  19    0.80    0.32
   8   5  20    0.35    0.26
   8   5  21   10.59    0.76
   8   6 -11    0.83    0.33
   8   6 -10   20.20    1.46
   8   6  -9    3.39    0.60
   8   6  -8   14.48    1.25
   8   6  -8   14.28    1.25
   8   6  -7    7.84    0.95
   8   6  -7    9.81    0.99
   8   6  -6    6.13    0.83
   8   6  -6    5.99    0.79
   8   6  -5    0.92    0.50
   8   6  -5    2.38    0.58
   8   6  -4   14.97    1.30
   8   6  -4   16.57    1.42
   8   6  -4   16.22    1.46
   8   6  -4   21.76    1.53
   8   6  -4   21.96    1.88
   8   6  -3   53.14    3.45
   8   6  -3   46.94    3.18
   8   6  -3   44.45    4.60
   8   6  -3   56.46    3.29
   8   6  -3   60.93    3.73
   8   6  -3   63.30    3.62
   8   6  -2    7.32    1.16
   8   6  -2    8.08    1.83
   8   6  -2    7.48    1.09
   8   6  -2    6.82    0.89
   8   6  -2    8.68    0.93
   8   6  -2    9.94    1.33
   8   6  -1  264.65   14.15
   8   6  -1  247.17   15.94
   8   6  -1  275.53   14.08
   8   6  -1  291.37   14.09
   8   6  -1  269.57   13.97
   8   6  -1  295.05   14.50
   8   6  -1  304.49   14.40
   8   6   0   80.94    4.61
   8   6   0   72.31    4.36
   8   6   0   71.38    5.90
   8   6   0   59.45    5.58
   8   6   0   76.84    4.25
   8   6   0   69.68    4.12
   8   6   0   77.32    4.70
   8   6   1    0.79    0.90
   8   6   1    0.53    0.75
   8   6   1    0.50    1.00
   8   6   1    0.06    0.42
   8   6   1    0.90    0.87
   8   6   2  152.39    7.99
   8   6   2  159.95    8.03
   8   6   2  142.70    9.60
   8   6   2  129.17    9.52
   8   6   2  136.53    7.65
   8   6   2  139.34    7.52
   8   6   2  125.15    7.76
   8   6   2  158.82    8.19
   8   6   3   42.37    3.01
   8   6   3   40.96    4.25
   8   6   3   42.71    2.54
   8   6   3   34.62    2.77
   8   6   3   41.07    3.14
   8   6   4   22.43    3.02
   8   6   4   23.75    3.11
   8   6   4   21.12    1.56
   8   6   4   24.62    2.31
   8   6   5    7.61    1.92
   8   6   5    9.38    0.90
   8   6   5   10.46    1.58
   8   6   5   10.71    2.07
   8   6   6    0.40    0.78
   8   6   6   -0.28    1.13
   8   6   6   -0.81    1.11
   8   6   7   18.14    1.95
   8   6   7   22.44    2.94
   8   6   7   20.51    2.43
   8   6   7   18.63    2.83
   8   6   8    5.04    1.56
   8   6   8    4.57    1.08
   8   6   8    3.28    1.34
   8   6   8    4.44    1.29
   8   6   9   64.31    4.27
   8   6   9   56.23    5.00
   8   6   9   66.73    3.82
   8   6   9   57.90    5.35
   8   6   9   61.62    5.38
   8   6  10   10.18    2.01
   8   6  10   12.24    1.15
   8   6  10   11.47    2.15
   8   6  10    8.29    1.80
   8   6  10    9.15    0.96
   8   6  11    2.52    0.55
   8   6  11    1.47    0.92
   8   6  11    1.09    1.02
   8   6  11    1.25    0.49
   8   6  11    0.26    0.80
   8   6  11    2.86    0.85
   8   6  12   21.33    1.57
   8   6  12   23.73    1.67
   8   6  12   20.52    2.97
   8   6  12   16.29    2.66
   8   6  12   18.43    1.93
   8   6  12   22.40    1.66
   8   6  13   32.11    3.74
   8   6  13   34.08    3.84
   8   6  13   28.63    2.52
   8   6  13   37.03    2.30
   8   6  14    2.37    0.55
   8   6  14    2.26    0.49
   8   6  14    1.94    0.83
   8   6  15   20.11    1.54
   8   6  16   14.29    1.21
   8   6  17   17.95    1.36
   8   6  18    6.25    0.69
   8   6  19    0.54    0.31
   8   6  19    0.74    0.49
   8   6  20    8.66    0.86
   8   6  20   12.75    0.85
  -8  -6 -21   10.80    0.82
   8   7 -12    2.62    0.55
   8   7 -11   10.09    0.79
   8   7 -11    9.69    1.09
   8   7 -10   18.93    1.33
   8   7 -10   17.92    1.47
   8   7  -9   16.82    1.31
   8   7  -9   17.22    1.46
   8   7  -8    7.79    0.87
   8   7  -8    8.22    1.01
   8   7  -7    0.16    0.40
   8   7  -7    0.07    0.63
   8   7  -6   20.55    1.66
   8   7  -6   26.10    1.77
   8   7  -6   22.10    1.91
   8   7  -5   15.55    1.41
   8   7  -5   17.73    1.44
   8   7  -5   18.34    1.71
   8   7  -4   53.05    3.52
   8   7  -4   54.19    3.63
   8   7  -4   75.55    3.84
   8   7  -4   71.58    3.79
   8   7  -4   74.22    4.15
   8   7  -3   60.19    3.72
   8   7  -3   58.96    3.50
   8   7  -3   51.14    3.37
   8   7  -3   61.99    3.52
   8   7  -3   61.81    3.70
   8   7  -2    9.98    1.26
   8   7  -2    9.13    1.03
   8   7  -2   10.33    1.07
   8   7  -2    9.11    1.01
   8   7  -2   11.20    1.31
   8   7  -1   21.86    1.90
   8   7  -1   23.44    1.76
   8   7  -1   16.53    2.68
   8   7  -1   21.60    1.70
   8   7  -1   21.67    1.67
   8   7  -1   23.87    1.93
   8   7   0   30.81    2.48
   8   7   0   31.25    3.74
   8   7   0   30.28    3.66
   8   7   0   35.94    2.57
   8   7   0   36.27    2.34
   8   7   0   36.86    2.30
   8   7   0   34.58    2.56
   8   7   1    2.01    0.78
   8   7   1    1.36    0.98
   8   7   1    1.39    0.71
   8   7   1    1.40    1.05
   8   7   1    2.50    0.75
   8   7   1    1.63    0.52
   8   7   1    2.31    0.51
   8   7   2   33.00    2.45
   8   7   2   28.86    2.38
   8   7   2   28.11    2.24
   8   7   2   31.76    3.56
   8   7   2   26.94    3.61
   8   7   2   29.17    2.20
   8   7   2   32.09    2.05
   8   7   2   22.92    2.31
   8   7   3   14.27    1.59
   8   7   3   14.00    1.61
   8   7   3   18.19    2.81
   8   7   3   12.61    1.37
   8   7   3   15.46    1.26
   8   7   3   15.27    1.65
   8   7   4    6.18    1.11
   8   7   4    5.26    1.10
   8   7   4    4.53    1.81
   8   7   4    5.36    0.69
   8   7   4    4.30    1.04
   8   7   5    9.00    1.98
   8   7   5   11.83    1.48
   8   7   5    6.93    1.92
   8   7   5    9.73    0.92
   8   7   5    8.09    1.34
   8   7   6   37.86    4.01
   8   7   6   41.03    4.35
   8   7   6   34.78    2.85
   8   7   7   22.10    3.02
   8   7   7   24.22    3.23
   8   7   7   19.30    2.05
   8   7   8   93.00    6.92
   8   7   8   88.57    6.97
   8   7   8   78.39    5.23
   8   7   9    0.11    0.88
   8   7   9    0.54    0.79
   8   7   9    0.29    1.02
   8   7   9    0.64    0.70
   8   7   9    0.10    0.82
   8   7  10   15.38    1.35
   8   7  10   11.57    2.25
   8   7  10   13.61    2.25
   8   7  10   13.36    1.63
   8   7  11    1.48    0.54
   8   7  11    0.56    1.08
   8   7  11    2.19    0.59
   8   7  11    2.19    1.01
   8   7  11    1.52    0.88
   8   7  12    2.99    0.59
   8   7  12    2.31    0.56
   8   7  12    1.27    1.02
   8   7  12    3.28    1.00
   8   7  13    3.44    1.02
   8   7  14   63.20    4.13
   8   7  14   63.11    3.59
   8   7  15    2.33    0.82
   8   7  16   39.03    2.78
   8   7  17   -0.45    0.62
   8   7  18    8.44    0.99
   8   7  19    3.91    0.72
   8   7  20   12.77    1.08
  -8  -7 -21    3.57    0.42
   8   8 -10    9.00    0.76
   8   8 -10    8.36    0.98
   8   8  -9    6.86    0.73
   8   8  -9    7.10    0.73
   8   8  -9    6.28    0.84
   8   8  -8   -0.14    0.39
   8   8  -8    0.57    0.39
   8   8  -8    1.02    0.55
   8   8  -7    0.49    0.40
   8   8  -7    1.18    0.56
   8   8  -6   12.77    1.18
   8   8  -6   13.65    1.37
   8   8  -5   26.79    1.93
   8   8  -5   28.22    2.16
   8   8  -4    0.99    0.42
   8   8  -4    1.22    0.50
   8   8  -4    0.15    0.65
   8   8  -3    2.88    0.87
   8   8  -3    2.06    0.54
   8   8  -3    2.33    0.56
   8   8  -3    3.07    0.61
   8   8  -3    1.23    0.81
   8   8  -2   16.67    1.65
   8   8  -2   15.49    1.38
   8   8  -2   15.02    1.34
   8   8  -2   15.52    1.66
   8   8  -1   31.42    2.44
   8   8  -1   31.44    2.18
   8   8  -1   22.61    3.28
   8   8  -1   32.02    2.40
   8   8  -1   29.51    2.12
   8   8  -1   29.53    2.09
   8   8  -1   29.91    2.47
   8   8  -1   31.08    2.25
   8   8   0   74.06    4.71
   8   8   0   82.78    4.56
   8   8   0   77.51    4.71
   8   8   0   78.80    4.46
   8   8   0   76.92    4.43
   8   8   0   80.12    4.89
   8   8   0   79.07    4.61
   8   8   1    0.89    0.68
   8   8   1    2.54    0.83
   8   8   1    0.90    0.57
   8   8   1    0.90    1.20
   8   8   1   -0.41    0.72
   8   8   1    1.13    0.48
   8   8   1    1.02    0.46
   8   8   1    0.78    0.83
   8   8   2    1.77    0.70
   8   8   2    0.68    0.74
   8   8   2    0.49    0.52
   8   8   2    0.92    1.01
   8   8   2    0.56    0.61
   8   8   2    0.92    0.45
   8   8   2    0.33    0.40
   8   8   2    0.61    0.78
   8   8   2    0.91    0.90
   8   8   3   16.20    1.61
   8   8   3   18.31    1.76
   8   8   3   14.13    2.63
   8   8   3   15.56    1.55
   8   8   3   14.50    1.77
   8   8   3   17.13    1.88
   8   8   4    1.72    0.76
   8   8   4    3.17    0.95
   8   8   4    1.58    1.27
   8   8   4    2.87    0.75
   8   8   4    1.48    0.94
   8   8   4    3.56    1.10
   8   8   5   53.51    3.80
   8   8   5   61.54    4.08
   8   8   5   66.98    3.82
   8   8   5   58.44    5.68
   8   8   5   60.91    4.15
   8   8   5   61.05    4.20
   8   8   6    8.22    1.36
   8   8   6    7.94    1.08
   8   8   6   11.14    2.23
   8   8   6    8.15    0.88
   8   8   6    6.90    1.38
   8   8   6    8.01    1.43
   8   8   7  100.51    5.99
   8   8   7  105.60    5.61
   8   8   7   88.94    7.53
   8   8   7   87.78    5.70
   8   8   7   97.69    6.04
   8   8   7  101.34    6.07
   8   8   8    0.64    0.86
   8   8   8    0.77    0.51
   8   8   8   -0.60    1.08
   8   8   8   -0.53    0.80
   8   8   8    0.11    0.85
   8   8   9   20.98    1.61
   8   8   9   16.54    2.82
   8   8   9   15.16    1.70
   8   8   9   14.44    1.93
   8   8  10   19.81    1.59
   8   8  10   17.31    2.81
   8   8  10   14.05    1.67
   8   8  10   18.28    1.99
   8   8  11    7.48    0.94
   8   8  11    7.02    1.34
   8   8  12   20.75    1.69
   8   8  12   24.29    1.71
   8   8  12   24.44    2.24
   8   8  13   25.28    1.71
   8   8  13   23.57    1.72
   8   8  13   23.66    2.23
   8   8  14   60.65    4.05
   8   8  15   -0.67    0.83
   8   8  16   10.38    1.28
   8   8  17   49.88    3.21
   8   8  18    7.08    0.91
   8   8  19   14.43    1.23
   8   8  19   10.76    1.06
   8   8  20    0.53    0.40
   8   9  -9    1.55    0.60
   8   9  -9    1.83    0.58
   8   9  -8   15.39    1.11
   8   9  -8   15.63    1.09
   8   9  -7    0.74    0.41
   8   9  -7    0.72    0.38
   8   9  -7   -0.18    0.48
   8   9  -6   26.32    1.82
   8   9  -6   25.52    1.77
   8   9  -6   24.98    1.85
   8   9  -5    2.76    0.62
   8   9  -5    2.05    0.53
   8   9  -5    2.06    0.64
   8   9  -4    1.26    0.46
   8   9  -4    1.11    0.63
   8   9  -3    4.88    0.98
   8   9  -3    3.20    0.59
   8   9  -3    4.99    0.72
   8   9  -3    3.75    0.87
   8   9  -2    6.37    1.14
   8   9  -2    6.85    0.86
   8   9  -2    7.39    0.89
   8   9  -2    6.95    1.08
   8   9  -1  121.63    7.01
   8   9  -1  116.25    6.70
   8   9  -1  138.52    7.09
   8   9  -1  127.30    6.71
   8   9  -1  119.50    6.94
   8   9   0   -0.17    0.51
   8   9   0    0.17    0.78
   8   9   0    0.46    0.49
   8   9   0    0.08    0.72
   8   9   0    0.12    0.46
   8   9   0    0.42    0.77
   8   9   1  104.29    6.16
   8   9   1  110.84    5.92
   8   9   1  107.59    6.10
   8   9   1  101.91    5.77
   8   9   1  109.20    6.18
   8   9   1   99.88    5.78
   8   9   2    1.61    0.61
   8   9   2    0.64    0.84
   8   9   2    1.26    0.55
   8   9   2    3.76    1.62
   8   9   2    0.93    0.76
   8   9   2    3.00    0.60
   8   9   2    1.59    0.96
   8   9   2    1.38    0.77
   8   9   3    0.78    0.53
   8   9   3    0.07    0.52
   8   9   3    1.27    1.14
   8   9   3    1.23    0.73
   8   9   3    0.17    0.65
   8   9   3    0.44    0.93
   8   9   3    0.19    0.86
   8   9   4   16.46    1.61
   8   9   4   21.17    1.89
   8   9   4   17.61    3.08
   8   9   4   21.17    1.59
   8   9   4   20.42    1.78
   8   9   4   18.02    1.93
   8   9   4   17.91    2.03
   8   9   5   24.57    2.02
   8   9   5   24.38    2.24
   8   9   5   31.59    2.18
   8   9   5   27.04    3.68
   8   9   5   27.72    1.92
   8   9   5   25.11    2.12
   8   9   5   27.42    2.51
   8   9   5   26.62    2.38
   8   9   6   11.44    1.30
   8   9   6   11.99    1.52
   8   9   6   16.24    1.43
   8   9   6    9.39    2.41
   8   9   6   12.84    1.16
   8   9   6   10.74    1.29
   8   9   6   13.00    1.63
   8   9   6   12.99    1.78
   8   9   7    9.07    1.14
   8   9   7   11.42    1.45
   8   9   7    9.83    1.12
   8   9   7    5.86    1.80
   8   9   7    7.47    1.32
   8   9   7   10.73    1.59
   8   9   7    9.18    1.42
   8   9   8   -0.20    0.76
   8   9   8   -0.28    0.56
   8   9   8    1.80    1.20
   8   9   8   -0.57    0.84
   8   9   8   -0.11    0.97
   8   9   8    0.92    0.86
   8   9   9   74.93    4.60
   8   9   9   74.07    4.21
   8   9   9   62.78    4.41
   8   9   9   67.56    4.64
   8   9  10    0.20    0.75
   8   9  10   -0.20    0.46
   8   9  10    0.27    0.73
   8   9  10    0.44    0.90
   8   9  11   10.06    1.43
   8   9  11    8.91    1.02
   8   9  11    7.85    1.22
   8   9  11   10.36    1.53
   8   9  12   28.98    2.02
   8   9  12   25.16    2.25
   8   9  12   32.44    2.58
   8   9  13   44.98    2.75
   8   9  13   40.12    3.05
   8   9  14    1.26    0.74
   8   9  14    3.80    0.98
   8   9  15    2.33    0.83
   8   9  16   38.60    2.75
   8   9  17    9.03    1.11
   8   9  18   19.57    1.57
   8   9  19    0.21    0.42
   8   9  19   -0.07    0.41
   8   9  20    1.36    0.43
   8  10  -8    1.47    0.97
   8  10  -8    1.65    0.41
   8  10  -7   13.39    1.17
   8  10  -7   13.97    1.05
   8  10  -6    0.60    0.38
   8  10  -6    0.55    0.35
   8  10  -5   15.42    1.26
   8  10  -5   15.99    1.18
   8  10  -4    1.30    0.48
   8  10  -4    0.58    0.40
   8  10  -4    0.47    0.48
   8  10  -3    0.63    0.70
   8  10  -3    1.36    0.48
   8  10  -3    0.42    0.55
   8  10  -2    9.50    1.28
   8  10  -2   10.22    1.02
   8  10  -2    9.13    1.10
   8  10  -1   20.09    1.91
   8  10  -1   21.83    1.71
   8  10  -1   24.41    1.96
   8  10  -1   21.27    1.64
   8  10  -1   18.44    1.68
   8  10   0    4.65    1.03
   8  10   0    3.43    0.67
   8  10   0    3.97    0.71
   8  10   0    4.76    1.00
   8  10   0    4.89    0.76
   8  10   0    2.78    0.80
   8  10   1    0.88    0.87
   8  10   1    0.90    0.48
   8  10   1    0.72    0.54
   8  10   1    0.92    0.73
   8  10   1    1.33    0.69
   8  10   1    1.43    0.70
   8  10   2   11.87    1.50
   8  10   2   10.63    1.16
   8  10   2   12.05    1.15
   8  10   2   10.08    1.36
   8  10   2    9.68    1.40
   8  10   2    8.53    1.22
   8  10   3    6.65    0.95
   8  10   3    7.55    0.91
   8  10   3    7.31    1.13
   8  10   3    6.24    1.78
   8  10   3    6.51    1.29
   8  10   3    7.39    1.13
   8  10   4    8.06    0.92
   8  10   4    5.75    1.08
   8  10   4    8.42    1.40
   8  10   4    6.51    1.13
   8  10   5   19.21    1.72
   8  10   5   21.24    1.68
   8  10   5   19.14    1.45
   8  10   5   17.27    1.64
   8  10   5   16.97    1.73
   8  10   5   16.06    1.92
   8  10   5   13.08    1.31
   8  10   6    4.57    0.75
   8  10   6    4.98    1.02
   8  10   6    6.60    0.96
   8  10   6    6.28    0.88
   8  10   6    6.40    1.00
   8  10   6    6.33    1.32
   8  10   6    8.18    1.18
   8  10   7    0.80    0.50
   8  10   7    1.01    0.77
   8  10   7    1.35    0.61
   8  10   7    1.77    0.66
   8  10   7    1.66    1.01
   8  10   7    1.90    0.86
   8  10   8   20.41    1.71
   8  10   8   24.51    2.11
   8  10   8   25.56    1.94
   8  10   8   24.58    2.22
   8  10   8   26.88    2.43
   8  10   8   26.42    2.16
   8  10   9    9.64    1.09
   8  10   9   12.99    1.49
   8  10   9   13.61    1.25
   8  10   9   10.31    1.44
   8  10   9   10.27    1.62
   8  10   9   10.88    1.43
   8  10  10   60.38    4.00
   8  10  10   65.99    3.77
   8  10  10   63.03    4.07
   8  10  10   64.32    4.26
   8  10  10   55.59    3.92
   8  10  11    2.06    0.83
   8  10  11    0.88    0.50
   8  10  11    0.92    0.83
   8  10  11    0.10    0.82
   8  10  11    0.41    0.75
   8  10  12   28.30    2.25
   8  10  12   23.85    2.14
   8  10  12   28.78    2.40
   8  10  13    0.16    0.74
   8  10  13    1.13    0.43
   8  10  13    1.49    0.74
   8  10  13    0.26    0.81
   8  10  14   -0.37    0.70
   8  10  14   -0.31    0.64
   8  10  14    0.40    0.75
   8  10  15   33.61    2.28
   8  10  15   31.71    2.33
   8  10  16    9.98    1.19
   8  10  17   27.52    2.02
   8  10  18    3.87    0.64
   8  10  19    3.28    0.54
   8  10  19    1.89    0.45
   8  10  19    2.12    0.46
   8  11  -7    1.07    0.81
   8  11  -6    2.34    1.28
   8  11  -6    3.86    0.87
   8  11  -5    0.19    1.05
   8  11  -5   -0.30    0.72
   8  11  -4    0.17    0.75
   8  11  -4    0.58    0.72
   8  11  -3    8.97    1.04
   8  11  -3   10.01    1.11
   8  11  -2    0.90    0.75
   8  11  -2    0.42    0.87
   8  11  -1    8.89    1.22
   8  11  -1   10.41    1.05
   8  11  -1    9.29    1.18
   8  11  -1    9.20    1.37
   8  11   0    2.18    0.90
   8  11   0    3.43    0.68
   8  11   0    2.19    0.82
   8  11   0    3.61    1.41
   8  11   0    2.77    0.60
   8  11   1    5.79    1.13
   8  11   1    6.70    0.84
   8  11   1    5.15    1.08
   8  11   1    6.69    1.79
   8  11   1    4.11    0.77
   8  11   2   33.44    2.51
   8  11   2   35.26    2.24
   8  11   2   35.03    2.48
   8  11   2   32.53    2.91
   8  11   2   25.74    2.11
   8  11   3    0.26    0.79
   8  11   3    1.63    0.66
   8  11   3    0.70    0.66
   8  11   3    0.63    0.50
   8  11   4   38.30    2.48
   8  11   4   35.56    2.57
   8  11   4   31.23    2.36
   8  11   4   36.38    2.89
   8  11   5    7.77    1.56
   8  11   5    6.85    1.04
   8  11   5    6.81    1.33
   8  11   5    5.90    0.92
   8  11   6    6.70    1.01
   8  11   6    6.22    1.27
   8  11   6    7.27    1.00
   8  11   7   10.18    1.11
   8  11   7    7.37    1.06
   8  11   7   11.47    1.56
   8  11   7    7.40    1.09
   8  11   8   10.44    1.19
   8  11   8    7.72    1.02
   8  11   8    8.42    1.43
   8  11   8    8.89    1.13
   8  11   9   33.98    2.54
   8  11   9   39.91    2.85
   8  11   9   35.82    2.56
   8  11   9   41.07    3.00
   8  11  10    5.49    0.90
   8  11  10    5.13    1.08
   8  11  10    4.79    1.15
   8  11  10    4.43    0.86
   8  11  11   18.82    1.66
   8  11  11   18.07    1.76
   8  11  11   19.60    1.89
   8  11  11   17.54    1.60
   8  11  12   10.01    1.18
   8  11  12   10.07    1.22
   8  11  12    9.77    1.36
   8  11  12    8.54    1.10
   8  11  13    0.31    0.56
   8  11  13    0.11    0.35
   8  11  13    0.31    0.62
   8  11  13    0.61    0.71
   8  11  13    0.84    0.60
   8  11  14   16.56    1.42
   8  11  14   14.36    1.37
   8  11  14   16.72    1.58
   8  11  14   13.28    1.31
   8  11  15    5.57    0.82
   8  11  15    4.34    0.73
   8  11  15    4.63    0.91
   8  11  15    4.46    0.76
   8  11  16    4.10    0.68
   8  11  16    2.92    0.54
   8  11  16    3.75    0.75
   8  11  16    3.28    0.62
   8  11  17    0.68    0.40
   8  11  17    0.04    0.46
   8  11  18   -0.15    0.31
   8  11  18    0.66    0.36
   8  12  -4   31.90    2.24
   8  12  -3    0.98    1.55
   8  12  -1   11.08    1.20
   8  12  -1   13.66    1.89
   8  12   0    4.96    0.93
   8  12   0    7.01    1.78
   8  12   0    6.48    0.92
   8  12   1   30.12    2.24
   8  12   1   32.22    2.62
   8  12   1   29.28    2.19
   8  12   2    1.01    0.73
   8  12   2    2.56    1.90
   8  12   2    0.95    0.69
   8  12   3   26.49    2.16
   8  12   3   29.85    2.74
   8  12   3   26.38    2.05
   8  12   4   -0.07    0.75
   8  12   4    0.84    2.05
   8  12   4    0.96    0.61
   8  12   5    0.04    1.64
   8  12   5    1.25    0.63
   8  12   5    0.57    0.78
   8  12   6    6.70    0.99
   8  12   6    8.45    1.26
   8  12   7    0.11    0.53
   8  12   7    0.25    0.77
   8  12   8   21.49    1.67
   8  12   8   25.87    2.13
   8  12   9    2.60    0.88
   8  12  10   19.86    1.83
   8  12  11   25.10    1.84
   8  12  11   31.04    2.26
   8  12  12    0.17    0.40
   8  12  12    0.11    0.61
   8  12  12    0.27    0.64
   8  12  13    8.88    0.93
   8  12  13    9.86    0.79
   8  12  13    8.97    1.07
   8  12  13   11.50    1.26
   8  12  14    4.47    0.62
   8  12  14    4.02    0.67
   8  12  14    4.34    0.79
   8  12  15    8.07    0.80
   8  12  15    8.39    0.99
   8  12  16   -0.08    0.28
   8  12  16   -0.27    0.43
   8  12  17   -0.26    0.35
   8  13   0   18.88    1.46
   8  13   1   -0.04    0.50
   8  13   1    0.29    0.44
   8  13   2   17.27    1.40
   8  13   2   14.48    1.29
   8  13   3    6.08    0.87
   8  13   3    4.97    0.75
   8  13   4    1.85    0.67
   8  13   4    2.00    0.60
   8  13   5   13.60    1.30
   8  13   5   11.91    1.15
   8  13   6   10.15    1.12
   8  13   6    8.38    0.93
   8  13   7   25.13    1.73
   8  13   8    0.83    0.43
   8  13   8    0.66    0.63
   8  13   9    6.82    1.05
   8  13  10   39.81    2.68
   8  13  11   -0.05    0.60
   8  13  12   17.74    1.13
   8  13  12   15.88    1.44
   8  13  13    0.56    0.46
   8  13  14   14.45    1.25
   8  13  15    2.31    0.47
   8  14   2    0.74    0.34
   8  14   3    1.68    0.43
   8  14   4   24.61    1.57
   8  14   4   21.23    1.45
   8  14   5    0.37    0.40
   8  14   5   -0.41    0.32
   8  14   6   12.90    1.08
   8  14   6   11.39    0.89
   8  14   7    3.98    0.64
   8  14   8    0.74    0.42
   8  14   9    5.57    0.68
   8  14  10    2.51    0.50
   8  14  11    9.09    0.82
  -9   7   0   31.69    1.74
  -9   7  -1    0.15    0.16
   9  -6  -6    4.32    0.44
  -9   6   5    0.04    0.19
  -9   6   5    0.31    0.21
  -9   6   4    2.51    0.35
  -9   6   4    2.17    0.30
   9  -6  -4    1.92    0.39
  -9   6   4    2.56    0.39
  -9   6   3   12.09    0.87
  -9   6   3   13.27    0.88
   9  -6  -3   11.23    0.92
  -9   6   2   10.75    0.79
  -9   6   2   11.23    0.85
  -9   6   1   38.62    2.23
  -9   6   0    0.34    0.32
  -9   6  -1    4.11    0.52
   9  -6   1    3.51    0.47
   9  -6   2    2.70    0.39
  -9   6  -3    1.36    0.34
   9  -6   3    1.08    0.33
  -9   6  -4   39.88    2.20
   9  -6   4   37.56    2.16
  -9   6  -5   -0.02    0.21
   9  -6   5   -0.02    0.22
   9  -6   6   19.18    1.17
  -9   6  -7    1.85    0.30
  -9   5   8    0.14    0.20
   9  -5  -8   -0.02    0.18
  -9   5   8    0.27    0.19
  -9   5   7    9.06    0.70
   9  -5  -7    7.03    0.66
   9  -5  -6    3.56    0.53
  -9   5   5   10.40    0.86
  -9   5   5    7.97    0.66
  -9   5   4   83.06    4.30
  -9   5   4   76.05    4.18
  -9   5   3    6.31    0.70
   9  -5  -3    5.86    0.66
  -9   5   3    5.74    0.65
  -9   5   2   59.10    3.13
   9  -5  -2   47.96    3.07
  -9   5   2   55.29    3.10
  -9   5   1   -0.15    0.36
   9  -5  -1    0.05    0.34
  -9   5   1    0.13    0.40
   9  -5  -1   -0.12    0.33
  -9   5   0   11.86    1.03
  -9   5   0   14.94    1.18
   9  -5   0   14.66    1.14
   9  -5   1   44.55    2.83
  -9   5  -1   52.06    2.88
   9  -5   1   45.84    2.77
   9  -5   2    8.21    0.90
   9  -5   2   10.42    0.90
   9  -5   3   26.80    1.81
   9  -5   3   25.95    1.73
   9  -5   4   33.03    2.14
  -9   5  -4   35.99    2.15
   9  -5   4   32.98    2.09
   9  -5   5   50.02    3.04
  -9   5  -5   54.83    3.04
   9  -5   5   54.67    3.02
  -9   5  -6   15.65    1.06
   9  -5   6   15.10    1.07
  -9   5  -7    1.86    0.35
  -9   5  -7    2.12    0.34
   9  -5   7    1.85    0.40
  -9   5  -8   36.54    2.19
   9  -5   8   45.07    2.30
  -9   5  -9   -0.06    0.24
   9  -5   9    0.64    0.26
  -9   5 -10   52.18    2.77
  -9   4   9    0.75    0.26
   9  -4  -9    0.62    0.24
  -9   4   9    0.51    0.25
  -9   4   8    1.02    0.33
   9  -4  -8    0.98    0.33
  -9   4   8    1.01    0.35
  -9   4   7   -0.22    0.35
   9  -4  -7    0.04    0.35
  -9   4   6    3.42    0.59
   9  -4  -6    4.25    0.62
   9  -4  -5   20.61    1.53
  -9   4   5   27.20    1.57
   9  -4  -4   -0.17    0.34
  -9   4   4   -0.28    0.38
  -9   4   3   39.64    2.40
   9  -4  -3   31.37    2.24
  -9   4   3   36.61    2.28
  -9   4   2   20.19    1.51
   9  -4  -2   14.47    1.35
  -9   4   2   19.54    1.48
   9  -4  -2   16.37    1.38
  -9   4   1   12.00    1.13
   9  -4  -1    9.02    1.04
  -9   4   1   11.71    1.14
   9  -4  -1    9.86    1.04
  -9   4   0   47.10    2.91
  -9   4   0   47.37    2.98
   9  -4   0   46.11    2.88
  -9   4  -1    1.73    0.52
   9  -4   1    0.48    0.45
  -9   4  -1    1.03    0.55
   9  -4   1    0.84    0.47
  -9   4  -2    9.33    0.99
   9  -4   2    9.53    1.05
  -9   4  -2    9.65    1.07
   9  -4   2   10.87    1.02
   9  -4   3   12.88    1.20
   9  -4   3   13.55    1.19
  -9   4  -4    2.62    0.47
   9  -4   4    2.40    0.55
  -9   4  -4    3.47    0.70
   9  -4   4    4.17    0.66
  -9   4  -5    3.26    0.55
   9  -4   5    4.55    0.65
  -9   4  -5    4.68    0.73
   9  -4   5    4.30    0.66
  -9   4  -6    0.65    0.41
   9  -4   6    0.95    0.38
  -9   4  -6    0.68    0.44
   9  -4   6    0.45    0.41
   9  -4   7   66.96    4.00
  -9   4  -7   72.27    4.00
  -9   4  -7   77.50    4.07
   9  -4   7   76.57    4.06
  -9   4  -8    1.62    0.46
  -9   4  -8    0.98    0.36
   9  -4   8    1.58    0.45
  -9   4  -9   56.73    3.17
   9  -4   9   55.97    3.16
   9  -4  10   12.62    0.97
   9  -4  11    1.45    0.32
  -9   4 -12   17.76    1.13
   9  -4  12   16.83    1.09
  -9   3  10    0.04    0.21
   9  -3 -10    0.02    0.21
  -9   3  10    0.11    0.21
  -9   3   9    9.05    0.78
   9  -3  -9    9.72    0.80
  -9   3   9    9.14    0.79
  -9   3   8    1.11    0.40
   9  -3  -8    1.11    0.39
  -9   3   8    0.98    0.39
  -9   3   7    0.09    0.40
   9  -3  -7    0.24    0.37
  -9   3   6    3.36    0.66
  -9   3   6    2.74    0.44
   9  -3  -6    3.74    0.68
  -9   3   5    4.04    0.73
   9  -3  -5    3.35    0.53
  -9   3   5    2.04    0.50
   9  -3  -4   29.94    2.06
  -9   3   4   31.86    2.09
   9  -3  -3    0.40    0.47
  -9   3   3   -0.40    0.47
  -9   3   2    0.07    0.52
   9  -3  -2    0.56    0.46
  -9   3   2    0.63    0.52
  -9   3   1   40.22    2.71
   9  -3  -1   36.07    2.60
  -9   3   1   42.40    2.72
  -9   3   0    4.06    0.80
  -9   3   0    4.38    0.86
  -9   3  -1   31.05    2.28
  -9   3  -1   32.82    2.33
  -9   3  -2   -0.45    0.55
   9  -3   2   -0.07    0.44
  -9   3  -2    0.50    0.60
   9  -3   2    1.00    0.53
  -9   3  -3    3.74    0.70
  -9   3  -3    2.96    0.58
   9  -3   3    5.36    0.78
   9  -3   3    4.79    0.76
  -9   3  -4    0.33    0.45
  -9   3  -4    0.92    0.43
   9  -3   4    0.64    0.48
  -9   3  -4    0.89    0.58
   9  -3   4    0.75    0.52
  -9   3  -5    0.48    0.45
   9  -3   5    0.06    0.42
  -9   3  -5    1.05    0.60
   9  -3   5    0.28    0.46
  -9   3  -6   81.87    4.71
   9  -3   6   87.31    4.80
  -9   3  -6   83.06    4.87
   9  -3   6   88.95    4.80
  -9   3  -7    5.07    0.77
   9  -3   7    5.97    0.74
  -9   3  -7    5.38    0.80
   9  -3   7    5.31    0.78
  -9   3  -8   72.52    4.00
   9  -3   8   68.27    3.92
  -9   3  -8   69.75    3.99
   9  -3   8   68.95    3.97
   9  -3   8   71.07    3.98
  -9   3  -9   23.13    1.70
   9  -3   9   24.35    1.69
   9  -3   9   24.32    1.66
  -9   3 -10    4.24    0.70
   9  -3  10    5.95    0.71
   9  -3  10    5.66    0.68
  -9   3 -11   55.44    3.09
   9  -3  11   52.83    3.02
   9  -3  11   51.42    3.00
  -9   3 -12   19.43    1.37
   9  -3  12   18.16    1.29
   9  -3  12   19.86    1.29
   9  -3  13   46.30    2.58
   9  -3  14    2.43    0.34
   9  -2 -11    9.87    0.70
  -9   2  10    4.66    0.52
   9  -2 -10    5.00    0.55
  -9   2  10    5.17    0.54
  -9   2   9   70.60    3.87
   9  -2  -9   70.46    3.89
  -9   2   9   71.19    3.87
  -9   2   8   11.37    1.01
   9  -2  -8    9.36    0.98
  -9   2   7   27.41    1.94
   9  -2  -7   27.81    1.95
  -9   2   6    1.55    0.58
  -9   2   6    1.17    0.37
   9  -2  -6    0.74    0.51
  -9   2   5   57.15    3.37
  -9   2   5   49.83    3.08
   9  -2  -5   50.30    3.27
  -9   2   4    4.55    0.87
   9  -2  -4    2.67    0.57
  -9   2   4    2.80    0.63
  -9   2   3   14.17    1.43
   9  -2  -3   11.97    1.18
  -9   2   3   10.46    1.18
   9  -2  -3   11.95    1.15
   9  -2  -2   29.64    2.20
  -9   2   2   31.30    2.26
   9  -2  -2   31.91    2.17
  -9   2   1    2.61    0.78
   9  -2  -1    0.14    0.49
  -9   2   1    0.50    0.58
   9  -2  -1    1.83    0.60
  -9   2   0  163.23    8.84
   9  -2   0  157.60    8.72
  -9   2   0  175.82    8.82
   9  -2   0  158.08    8.62
  -9   2  -1    0.46    0.61
   9  -2   1    0.87    0.54
  -9   2  -2  186.94   10.12
   9  -2   2  195.38   10.12
  -9   2  -3   76.83    4.87
   9  -2   3   94.74    5.00
  -9   2  -4   -0.20    0.54
   9  -2   4    0.41    0.46
  -9   2  -5   16.06    1.48
   9  -2   5   19.93    1.60
  -9   2  -5   18.21    1.64
   9  -2   5   20.83    1.61
  -9   2  -6   64.05    3.47
   9  -2   6   60.60    3.50
  -9   2  -6   60.87    3.62
   9  -2   6   61.95    3.51
  -9   2  -7   57.89    3.45
   9  -2   7   60.20    3.48
  -9   2  -7   56.18    3.55
   9  -2   7   54.71    3.46
  -9   2  -8   17.82    1.43
   9  -2   8   16.91    1.34
  -9   2  -8   14.25    1.39
   9  -2   8   15.83    1.39
   9  -2   8   16.30    1.39
  -9   2  -9    8.95    1.11
  -9   2  -9    8.84    1.04
   9  -2   9   12.15    1.11
   9  -2   9   13.57    1.15
  -9   2 -10  259.74   13.02
   9  -2  10  256.20   12.96
   9  -2  10  248.45   12.95
  -9   2 -11   12.28    1.17
   9  -2  11   11.70    1.08
   9  -2  11   12.04    1.09
  -9   2 -12   51.76    3.07
   9  -2  12   51.44    2.99
   9  -2  12   50.57    2.97
   9  -2  13   -0.07    0.35
  -9   2 -13    0.38    0.46
   9  -2  13   -0.08    0.35
   9  -2  14   25.08    1.56
   9  -2  14   24.06    1.55
   9  -2  15    0.46    0.24
   9  -2  15    0.15    0.22
   9  -1 -12    1.45    0.29
   9  -1 -11    3.11    0.39
  -9   1  10    3.25    0.46
   9  -1 -10    4.12    0.54
  -9   1  10    3.86    0.48
  -9   1   9   11.34    0.97
   9  -1  -9   10.24    0.98
  -9   1   9   10.96    0.94
  -9   1   8  124.44    6.66
   9  -1  -8  125.19    6.67
  -9   1   7    6.48    0.89
   9  -1  -7    5.73    0.86
  -9   1   6    6.83    1.02
   9  -1  -6    7.89    0.98
  -9   1   5   13.37    1.40
  -9   1   5   11.80    1.15
   9  -1  -5   14.39    1.39
  -9   1   4   -0.39    0.67
  -9   1   4    0.06    0.45
   9  -1  -4    0.79    0.43
  -9   1   3   76.32    4.40
   9  -1  -3   64.40    4.09
   9  -1  -3   71.64    4.11
   9  -1  -3   70.70    4.25
  -9   1   2    0.16    0.61
   9  -1  -2   -0.14    0.47
   9  -1  -2   -0.12    0.48
   9  -1  -1  101.15    5.33
   9  -1  -1   95.98    5.19
   9  -1   0    7.05    0.88
   9  -1   0    6.81    1.00
   9  -1   0    6.89    0.92
   9  -1   1   46.52    2.97
   9  -1   2  259.99   13.41
   9  -1   2  258.00   13.30
   9  -1   3   12.63    1.29
   9  -1   3   12.93    1.25
   9  -1   4  203.16   10.51
   9  -1   4  196.67   10.42
   9  -1   5    9.68    1.12
   9  -1   5   10.10    1.08
   9  -1   6   62.20    3.77
   9  -1   6   63.92    3.77
   9  -1   6   61.87    3.78
   9  -1   7   42.16    2.62
   9  -1   7   38.95    2.60
   9  -1   7   37.31    2.60
   9  -1   8   16.79    1.40
   9  -1   8   16.61    1.46
  -9   1  -9  178.04   10.26
   9  -1   9  219.61   10.36
   9  -1  10    0.82    0.52
  -9   1 -10    0.86    0.64
  -9   1 -10    1.93    0.56
  -9   1 -11  184.00    9.21
   9  -1  11  166.89    9.11
   9  -1  12    1.90    0.54
  -9   1 -12    0.96    0.57
   9  -1  13   36.09    2.26
   9  -1  13   35.25    2.27
   9  -1  14   35.90    2.21
   9  -1  14   35.58    2.20
  -9   1 -15    7.21    0.79
   9  -1  15    7.60    0.75
   9  -1  15    9.67    0.80
  -9   1 -16   40.74    2.28
   9  -1  16   41.29    2.28
   9  -1  16   37.86    2.25
   9  -1  17    1.93    0.30
   9   0 -12    2.40    0.36
   9   0 -11   11.82    0.85
   9   0 -11   10.32    0.83
   9   0 -10    1.54    0.43
   9   0 -10    3.03    0.46
  -9   0   9   80.70    4.34
   9   0  -9   86.39    4.43
   9   0  -9   76.79    4.29
  -9   0   9   74.83    4.25
  -9   0   8    0.31    0.49
   9   0  -8    0.92    0.48
   9   0  -8    0.61    0.41
  -9   0   7   51.11    3.33
   9   0  -7   57.23    3.36
  -9   0   6    4.04    0.86
   9   0  -6    5.21    0.84
  -9   0   5    8.48    1.11
   9   0  -5    9.14    1.09
  -9   0   4   28.93    2.25
   9   0  -3    0.15    0.55
   9   0  -3    0.59    0.46
   9   0  -2   55.50    3.52
   9   0  -2   58.32    3.51
   9   0  -2   62.40    3.66
   9   0  -2   56.56    3.55
   9   0  -1   10.67    1.12
   9   0  -1    9.13    1.01
   9   0  -1    6.54    1.01
   9   0  -1   10.32    2.11
   9   0  -1   10.24    1.13
   9   0   0   21.85    1.76
   9   0   0   22.76    1.71
   9   0   0   19.11    1.67
   9   0   0   19.89    2.97
   9   0   0   21.27    1.72
   9   0   1  107.39    5.62
   9   0   1   92.78    5.55
   9   0   1  100.21    7.77
   9   0   1  100.31    5.64
   9   0   2    0.14    0.56
   9   0   2    0.07    0.57
   9   0   2    0.25    0.44
   9   0   2   -0.25    0.53
   9   0   3  203.63   10.77
   9   0   3  214.40   10.81
   9   0   3  214.97   10.72
   9   0   3  189.76   10.57
   9   0   3  189.63   12.98
   9   0   3  211.46   10.76
   9   0   4   -0.07    0.49
   9   0   4    0.28    0.61
   9   0   4    0.27    0.52
   9   0   4    0.21    0.40
   9   0   4    0.30    0.92
   9   0   4    0.26    0.46
   9   0   5   31.10    2.51
   9   0   5   39.11    2.57
   9   0   5   41.60    2.55
   9   0   5   31.51    3.87
   9   0   5   39.51    2.57
   9   0   6   22.19    1.86
   9   0   6   23.89    1.81
   9   0   6   23.62    1.81
   9   0   6   22.31    3.00
   9   0   7   62.80    3.72
   9   0   7   61.40    3.72
   9   0   8   68.39    4.04
   9   0   9   18.42    1.52
   9   0  10   91.53    5.15
   9   0  11    9.30    1.01
   9   0  11   10.03    1.04
   9   0  12    6.79    0.88
   9   0  12    5.75    0.81
   9   0  13   73.60    4.20
   9   0  14    1.13    0.49
  -9   0 -14    1.76    0.58
  -9   0 -15   82.74    4.43
   9   0  15   77.47    4.37
   9   0  16    0.97    0.37
  -9   0 -16    1.86    0.44
   9   0  17   26.22    1.60
   9   0  18   33.67    1.86
   9   1 -12   17.05    1.15
   9   1 -12   17.78    1.12
   9   1 -11    4.11    0.49
   9   1 -11    3.28    0.50
   9   1 -11    4.09    0.51
   9   1 -10   12.97    0.99
   9   1 -10   11.10    0.96
  -9  -1   9    3.16    0.52
   9   1  -9    3.21    0.57
   9   1  -9    3.78    0.59
   9   1  -9    2.30    0.52
  -9  -1   8   64.66    3.72
   9   1  -8   75.96    3.82
   9   1  -8   67.14    3.66
  -9  -1   7  109.23    5.77
   9   1  -7   96.77    5.52
   9   1  -7   93.63    5.53
  -9  -1   6   57.97    3.39
   9   1  -6   57.81    3.32
   9   1  -6   49.66    3.08
   9   1  -6   46.77    3.12
  -9  -1   5   62.33    3.67
   9   1  -5   69.02    3.63
   9   1  -5   51.86    3.26
   9   1  -5   50.33    3.34
   9   1  -4    0.06    0.47
   9   1  -3  111.68    6.15
   9   1  -3  123.28    6.36
   9   1  -3  101.44    6.13
   9   1  -3  120.86    6.34
   9   1  -2    6.59    0.99
   9   1  -2    8.01    0.99
   9   1  -2    6.28    0.85
   9   1  -2    6.30    1.68
   9   1  -2    4.71    0.86
   9   1  -1   35.61    2.35
   9   1  -1   37.18    2.45
   9   1  -1   29.73    2.29
   9   1  -1   31.10    3.69
   9   1  -1   37.92    2.54
   9   1   0   39.92    2.72
   9   1   0   42.48    2.70
   9   1   0   42.79    2.74
   9   1   0   40.89    4.34
   9   1   0   39.86    2.81
   9   1   1    1.51    0.67
   9   1   1    1.65    0.57
   9   1   1    1.40    0.56
   9   1   1    2.62    1.17
   9   1   2  269.78   14.06
   9   1   2  273.35   13.87
   9   1   2  269.40   13.84
   9   1   3    5.56    0.87
   9   1   3    6.04    1.06
   9   1   3    7.42    0.99
   9   1   3    5.70    0.77
   9   1   3    7.30    1.88
   9   1   3    6.66    0.86
   9   1   4   26.30    2.14
   9   1   4   27.58    2.00
   9   1   4   28.73    1.98
   9   1   4   23.12    1.77
   9   1   4   26.61    3.40
   9   1   4   27.41    2.01
   9   1   5   70.46    4.60
   9   1   5   76.84    4.47
   9   1   5   78.68    4.45
   9   1   5   76.68    6.33
   9   1   5   80.78    4.52
   9   1   6    0.81    0.58
   9   1   6   -0.26    0.49
   9   1   6    0.57    0.48
   9   1   6    1.12    0.91
   9   1   7   48.74    3.03
   9   1   7   43.42    4.47
   9   1   7   47.92    3.07
   9   1   8   25.52    1.90
   9   1   8   23.81    3.20
   9   1   8   25.64    1.94
   9   1   9   77.58    4.47
   9   1   9   76.59    4.50
   9   1  10   25.15    1.89
   9   1  10   26.70    1.98
   9   1  11   -0.06    0.56
   9   1  12   74.27    4.29
   9   1  13    2.18    0.57
  -9  -1 -14   77.39    4.30
  -9  -1 -14   69.67    4.08
   9   1  14   77.28    4.23
  -9  -1 -15    1.96    0.60
  -9  -1 -15    1.77    0.46
   9   1  15    2.53    0.54
  -9  -1 -16   57.22    3.25
  -9  -1 -16   52.71    3.15
   9   1  16   58.02    3.26
   9   1  16   61.70    3.30
  -9  -1 -17    6.40    0.66
  -9  -1 -17    6.13    0.65
   9   1  17    9.06    0.75
   9   1  17    8.96    0.78
   9   1  18    0.19    0.26
   9   1  18    0.08    0.25
   9   2 -12   -0.09    0.23
   9   2 -11   53.47    2.86
   9   2 -11   50.18    2.86
   9   2 -11   57.93    2.92
   9   2 -11   46.22    2.86
   9   2 -10    5.01    0.61
   9   2 -10    3.57    0.55
   9   2 -10    5.79    0.64
   9   2 -10    2.85    0.63
   9   2  -9   14.28    1.13
   9   2  -9   12.12    1.07
   9   2  -9   12.09    1.11
  -9  -2   8   25.76    1.76
   9   2  -8   25.35    1.79
   9   2  -8   22.49    1.68
   9   2  -8   24.52    1.77
  -9  -2   7   13.09    1.30
   9   2  -7   15.93    1.35
   9   2  -7   14.70    1.22
   9   2  -7   12.48    1.28
  -9  -2   6  188.35    9.65
   9   2  -6  199.69    9.62
   9   2  -6  169.13    9.38
   9   2  -6  176.75    9.51
   9   2  -5   21.63    1.67
   9   2  -5   17.18    1.44
   9   2  -5   20.55    1.64
   9   2  -4   73.40    4.15
   9   2  -4   75.95    4.39
   9   2  -3   13.74    1.32
   9   2  -3   10.48    1.27
   9   2  -2    9.21    1.00
   9   2  -2   10.17    1.11
   9   2  -2   10.79    2.02
   9   2  -2    9.79    1.16
   9   2  -2   11.38    1.27
   9   2  -1   54.02    3.40
   9   2  -1   64.23    3.57
   9   2  -1   55.61    3.58
   9   2  -1   59.63    5.23
   9   2  -1   56.89    3.66
   9   2   0    3.23    0.83
   9   2   0    2.47    0.61
   9   2   0    2.71    0.59
   9   2   0    2.77    1.18
   9   2   0    1.66    0.70
   9   2   1   93.81    5.51
   9   2   1   95.97    5.23
   9   2   1   98.36    5.28
   9   2   1   87.34    5.37
   9   2   1   89.54    7.17
   9   2   2    0.34    0.66
   9   2   2    0.40    0.41
   9   2   2   -0.06    0.45
   9   2   2   -0.38    0.67
   9   2   3   14.33    1.55
   9   2   3   12.58    1.20
   9   2   3   14.59    1.20
   9   2   3   13.87    2.32
   9   2   3   12.20    1.41
   9   2   3   12.18    1.25
   9   2   4   42.01    2.97
   9   2   4   43.22    2.68
   9   2   4   40.36    2.56
   9   2   4   41.83    2.90
   9   2   4   44.87    4.38
   9   2   4   40.58    2.72
   9   2   5    5.91    0.87
   9   2   5    7.37    0.86
   9   2   5    5.12    0.67
   9   2   5    7.83    1.80
   9   2   5    5.94    1.01
   9   2   6  106.16    5.71
   9   2   6   94.47    5.88
   9   2   6   96.79    7.54
   9   2   6  108.80    5.79
   9   2   7    2.87    0.66
   9   2   7    2.39    1.17
   9   2   7    2.48    0.61
   9   2   7    3.26    1.26
   9   2   7    1.81    0.84
   9   2   8   68.13    4.24
   9   2   8   77.03    6.08
   9   2   8   77.16    4.22
   9   2   8   63.16    4.33
   9   2   8   75.52    4.26
   9   2   8   66.71    5.83
   9   2   9    8.47    1.05
   9   2   9    9.79    1.98
   9   2   9    9.49    1.03
   9   2   9    7.40    1.72
   9   2   9    8.98    1.06
   9   2   9    7.26    1.13
   9   2  10   19.29    1.65
   9   2  10   22.72    1.71
   9   2  10   21.34    1.73
   9   2  11  129.54    6.80
   9   2  11  120.14    6.80
   9   2  12    0.06    0.51
   9   2  12   -0.06    0.44
   9   2  13   23.18    1.73
   9   2  13   21.84    1.74
   9   2  14    0.06    0.43
   9   2  14    0.39    0.42
  -9  -2 -15   28.52    1.98
   9   2  15   29.59    1.96
   9   2  15   28.08    1.97
  -9  -2 -16   58.19    3.45
  -9  -2 -16   61.46    3.46
   9   2  16   62.59    3.48
  -9  -2 -17    5.20    0.62
  -9  -2 -17    6.55    0.72
   9   2  17    6.62    0.70
  -9  -2 -18   56.96    3.23
   9   2  18   61.47    3.23
   9   2  19    0.06    0.19
   9   3 -12   30.76    1.61
   9   3 -12   22.73    1.58
   9   3 -11    3.47    0.44
   9   3 -11    3.04    0.46
   9   3 -11    2.99    0.60
   9   3 -10   25.29    1.57
   9   3 -10   22.05    1.55
   9   3 -10   22.38    1.62
   9   3  -9   55.64    3.10
   9   3  -9   52.06    3.06
   9   3  -9   50.83    3.13
   9   3  -8    0.46    0.44
   9   3  -8    0.09    0.36
   9   3  -8    0.11    0.53
  -9  -3   7  100.75    5.58
   9   3  -7  105.53    5.59
   9   3  -7  100.91    5.49
   9   3  -7   98.28    5.61
  -9  -3   6    2.97    0.72
   9   3  -6    4.83    0.77
   9   3  -6    3.69    0.63
   9   3  -6    3.00    0.84
   9   3  -5   51.11    2.99
   9   3  -5   44.39    2.78
   9   3  -5   43.11    2.99
   9   3  -4   45.21    2.88
   9   3  -4   50.54    3.18
   9   3  -4   52.49    3.22
   9   3  -3    1.28    0.69
   9   3  -3    0.59    0.35
   9   3  -3    0.73    0.64
   9   3  -2   52.02    4.90
   9   3  -2   59.26    3.49
   9   3  -2   53.45    3.60
   9   3  -2   59.11    3.65
   9   3  -1    1.36    0.72
   9   3  -1    1.00    0.50
   9   3  -1    0.52    0.81
   9   3  -1   -0.31    0.71
   9   3   0   61.56    3.82
   9   3   0   51.36    5.01
   9   3   0   58.29    3.50
   9   3   0   59.52    3.53
   9   3   0   57.75    3.75
   9   3   1    7.94    1.16
   9   3   1    9.02    1.00
   9   3   1    7.93    0.87
   9   3   1    6.93    0.89
   9   3   1    8.67    1.83
   9   3   1    8.63    1.19
   9   3   2   47.74    3.34
   9   3   2   45.27    2.93
   9   3   2   53.98    3.03
   9   3   2   49.21    3.32
   9   3   2   48.34    4.65
   9   3   3   56.03    3.76
   9   3   3   58.88    3.49
   9   3   3   56.50    3.38
   9   3   3   59.08    3.39
   9   3   3   55.07    3.76
   9   3   3   57.96    3.46
   9   3   4   70.75    4.47
   9   3   4   66.81    5.39
   9   3   4   77.74    4.19
   9   3   4   70.94    4.06
   9   3   4   69.64    3.98
   9   3   4   64.53    4.39
   9   3   4   70.58    4.13
   9   3   4   73.08    6.03
   9   3   5  147.93    9.52
   9   3   5  161.92    7.87
   9   3   5  138.38    7.58
   9   3   5  141.91    7.71
   9   3   5  142.63    8.14
   9   3   5  151.17    7.84
   9   3   5  143.44    9.87
   9   3   6    0.06    0.45
   9   3   6    0.25    0.60
   9   3   6    0.71    0.88
   9   3   6    0.68    0.53
   9   3   6    0.06    0.38
   9   3   6    1.37    1.10
   9   3   6   -0.28    0.79
   9   3   7   99.41    7.28
   9   3   7   95.31    5.48
   9   3   7   90.62    6.94
   9   3   7   99.19    5.29
   9   3   7   92.67    5.21
   9   3   7   84.35    5.56
   9   3   7   94.17    5.29
   9   3   8    6.01    0.87
   9   3   8    5.72    0.98
   9   3   8    7.18    1.59
   9   3   8    5.05    0.76
   9   3   8    4.23    1.47
   9   3   8    5.01    1.07
   9   3   9   19.20    1.75
   9   3   9   19.07    2.72
   9   3   9   17.87    1.53
   9   3   9   20.00    2.72
   9   3   9   20.49    1.63
   9   3  10  141.85    7.91
   9   3  10  122.34    9.31
   9   3  10  149.08    9.88
   9   3  10  144.11    7.74
   9   3  10  155.13    7.85
   9   3  11   15.13    1.53
   9   3  11   17.43    1.47
   9   3  11   19.72    1.56
   9   3  12   94.37    5.07
   9   3  12  101.61    5.18
   9   3  13   11.92    1.27
   9   3  13   15.16    1.31
   9   3  13   15.56    1.35
   9   3  14   26.71    1.94
   9   3  14   29.73    2.04
   9   3  15   51.25    3.04
   9   3  15   50.34    3.07
   9   3  16    1.14    0.48
  -9  -3 -16    1.27    0.46
   9   3  16    1.84    0.48
  -9  -3 -17   99.42    5.59
   9   3  17  113.67    5.70
   9   3  17  113.02    5.75
   9   3  18    0.49    0.34
  -9  -3 -18    0.49    0.38
   9   3  18    0.79    0.30
  -9  -3 -19   25.31    1.63
   9   3  19   25.89    1.57
   9   3  19   30.25    1.66
   9   4 -12   19.30    1.15
   9   4 -12   16.31    1.19
   9   4 -11   15.75    1.09
   9   4 -11   14.77    1.21
   9   4 -10   23.20    1.56
   9   4 -10   25.68    1.60
   9   4 -10   23.41    1.69
   9   4  -9    0.42    0.40
   9   4  -9    0.45    0.36
   9   4  -9    0.87    0.53
   9   4  -8   57.23    3.25
   9   4  -8   56.25    3.20
   9   4  -8   50.87    3.29
   9   4  -7    0.27    0.41
   9   4  -7    0.29    0.40
   9   4  -7   -0.37    0.60
  -9  -4   6   73.80    4.42
   9   4  -6   83.39    4.46
   9   4  -6   77.15    4.33
   9   4  -6   75.44    4.54
   9   4  -5  110.55    5.87
   9   4  -5  103.23    5.73
   9   4  -5  106.85    6.00
   9   4  -4   47.79    2.88
   9   4  -4   47.90    3.18
   9   4  -3  101.21    5.57
   9   4  -3  107.70    5.63
   9   4  -2    2.23    0.82
   9   4  -2    3.53    0.62
   9   4  -2    2.45    0.62
   9   4  -2    2.57    0.86
   9   4  -2    3.00    1.10
   9   4  -1  153.66    8.37
   9   4  -1  170.13    8.47
   9   4  -1  160.38    8.71
   9   4  -1  164.69    8.72
   9   4   0    5.54    1.03
   9   4   0    4.90    0.77
   9   4   0    4.73    0.72
   9   4   0    2.09    1.10
   9   4   0    4.64    0.99
   9   4   1   29.98    2.27
   9   4   1   26.53    3.22
   9   4   1   23.60    1.85
   9   4   1   24.89    1.83
   9   4   1   27.26    2.23
   9   4   2   41.64    3.08
   9   4   2   35.68    4.06
   9   4   2   46.57    2.72
   9   4   2   42.46    3.09
   9   4   3   33.74    2.49
   9   4   3   26.95    1.91
   9   4   3   27.44    2.37
   9   4   4  504.70   24.10
   9   4   4  472.03   25.99
   9   4   4  487.44   23.67
   9   4   4  460.43   23.45
   9   4   4  503.97   24.11
   9   4   4  441.37   23.51
   9   4   5   25.76    2.06
   9   4   5   21.07    2.55
   9   4   5   23.47    1.76
   9   4   5   20.47    1.52
   9   4   5   24.68    2.17
   9   4   5   18.05    2.86
   9   4   5   21.45    1.65
   9   4   6  110.05    7.92
   9   4   6  117.33    6.30
   9   4   6  100.02    7.30
   9   4   6  118.19    6.00
   9   4   6   97.87    5.74
   9   4   6  110.44    6.40
   9   4   6  104.71    5.87
   9   4   7   28.06    3.48
   9   4   7   33.36    2.48
   9   4   7   30.08    3.27
   9   4   7   33.13    2.20
   9   4   7   28.83    3.39
   9   4   7   28.96    2.01
   9   4   7   30.77    2.59
   9   4   7   29.08    2.10
   9   4   8   21.85    1.86
   9   4   8   20.69    2.61
   9   4   8   19.12    1.53
   9   4   8   13.19    2.38
   9   4   8   16.70    1.38
   9   4   8   15.68    2.51
   9   4   8   16.90    1.46
   9   4   9   19.74    1.81
   9   4   9   19.92    1.53
   9   4   9   17.92    2.67
   9   4   9   14.16    2.38
   9   4   9   17.89    1.43
   9   4   9   16.13    2.48
   9   4   9   18.71    1.54
   9   4  10    1.33    0.61
   9   4  10    0.70    0.77
   9   4  10    1.10    0.53
   9   4  10    0.26    1.02
   9   4  10    1.29    0.84
   9   4  10    1.39    0.49
   9   4  10    1.00    0.86
   9   4  11  225.77   12.06
   9   4  11  227.30   11.72
   9   4  11  230.78   11.82
   9   4  12   10.10    1.34
   9   4  12   12.12    1.14
   9   4  12   13.73    1.25
   9   4  13   93.09    5.60
   9   4  13   97.30    5.38
   9   4  13  103.20    5.50
   9   4  14   80.24    4.99
   9   4  14   86.99    4.83
   9   4  14   93.82    4.93
   9   4  15    1.67    0.53
   9   4  15    0.65    0.54
   9   4  15    0.76    0.44
   9   4  16  100.55    5.45
   9   4  16  104.36    5.53
   9   4  17    4.75    0.61
   9   4  17    6.22    0.71
   9   4  18   26.69    1.73
   9   4  18   32.01    1.83
  -9  -4 -19    4.81    0.57
   9   4  19    3.63    0.42
   9   4  19    4.71    0.52
  -9  -4 -20    0.24    0.22
   9   5 -11   21.35    1.36
   9   5 -11   24.06    1.43
   9   5 -11   23.05    1.56
   9   5 -10    1.28    0.36
   9   5 -10    1.24    0.57
   9   5  -9   58.92    3.28
   9   5  -9   57.63    3.28
   9   5  -9   58.54    3.40
   9   5  -8    1.31    0.46
   9   5  -8    1.55    0.44
   9   5  -8    1.41    0.59
   9   5  -7   40.57    2.52
   9   5  -7   39.32    2.46
   9   5  -7   40.94    2.67
   9   5  -6    8.34    0.93
   9   5  -6    8.26    0.86
   9   5  -6    9.48    1.16
   9   5  -5   -0.11    0.47
   9   5  -5    0.69    0.43
   9   5  -5   -0.29    0.67
   9   5  -4  109.89    6.05
   9   5  -4  118.84    6.41
   9   5  -3   14.39    1.19
   9   5  -3   13.97    1.18
   9   5  -3   14.87    1.53
   9   5  -2   11.67    1.06
   9   5  -2    9.22    1.02
   9   5  -2    8.46    0.89
   9   5  -2   10.88    1.34
   9   5  -1    1.02    0.74
   9   5  -1    0.17    0.46
   9   5  -1    0.18    0.44
   9   5  -1    0.17    0.80
   9   5   0   16.94    1.45
   9   5   0   18.90    1.47
   9   5   0   15.40    1.74
   9   5   0   16.17    2.49
   9   5   1    4.67    0.82
   9   5   1    5.99    0.78
   9   5   1    7.81    1.20
   9   5   1    3.18    1.34
   9   5   2    0.95    0.55
   9   5   2    0.43    0.39
   9   5   2    0.54    0.83
   9   5   2    1.46    0.92
   9   5   3  316.11   16.24
   9   5   3  336.06   16.87
   9   5   4    1.01    0.82
   9   5   4    0.91    0.60
   9   5   4    1.59    0.47
   9   5   4    1.37    1.06
   9   5   4    0.94    0.97
   9   5   5    1.21    0.87
   9   5   5    1.51    0.64
   9   5   5   -0.25    1.11
   9   5   5    1.02    0.39
   9   5   5    1.65    1.03
   9   5   5    0.54    0.93
   9   5   6  130.84    6.77
   9   5   6  119.14    8.36
   9   5   6  124.36    6.39
   9   5   6  130.12    6.95
   9   5   6  102.87    6.10
   9   5   7    0.05    0.36
   9   5   7   -0.10    0.76
   9   5   7   -0.13    0.47
   9   5   7   -0.27    0.88
   9   5   7    0.41    0.74
   9   5   7   -0.55    0.94
   9   5   7    0.56    0.93
   9   5   8   71.40    4.30
   9   5   8   61.08    5.50
   9   5   8   63.49    5.20
   9   5   8   70.80    3.91
   9   5   8   56.81    5.52
   9   5   8   59.69    3.74
   9   5   9    5.23    0.75
   9   5   9    5.68    1.11
   9   5   9    6.07    0.85
   9   5   9    3.52    1.45
   9   5   9    4.87    1.36
   9   5   9    2.90    1.21
   9   5  10  114.71    6.31
   9   5  10  101.07    7.54
   9   5  10   97.06    7.55
   9   5  10  110.13    5.82
   9   5  10   86.88    7.51
   9   5  10  104.91    5.79
   9   5  11    0.75    0.45
   9   5  11    0.75    0.71
   9   5  11    0.87    0.47
   9   5  11    1.17    0.41
   9   5  12    3.88    0.71
   9   5  12    5.23    1.09
   9   5  12    3.43    0.58
   9   5  13  133.60    7.57
   9   5  13  131.92    7.12
   9   5  13  142.52    7.28
   9   5  14    9.14    1.20
   9   5  14    9.07    0.89
   9   5  14    9.84    1.01
   9   5  15   59.48    3.77
   9   5  15   61.54    3.53
   9   5  16    0.40    0.36
   9   5  16    0.30    0.54
   9   5  17   27.07    2.02
   9   5  17   35.04    2.00
   9   5  18   16.16    1.14
   9   5  19    2.78    0.39
  -9  -5 -20   28.55    1.68
   9   6 -11    0.10    0.21
   9   6 -11    0.07    0.51
   9   6 -10   30.54    1.77
   9   6 -10   28.21    1.74
   9   6 -10   28.13    1.89
   9   6  -9   -0.48    0.34
   9   6  -9    0.26    0.46
   9   6  -8    8.99    0.85
   9   6  -8    8.73    1.00
   9   6  -7   17.07    1.31
   9   6  -7   15.83    1.25
   9   6  -7   16.03    1.46
   9   6  -6    3.98    0.64
   9   6  -6    2.51    0.55
   9   6  -6    4.22    0.86
   9   6  -5   68.68    4.13
   9   6  -5   74.03    4.10
   9   6  -5   77.04    4.40
   9   6  -4    0.74    0.37
   9   6  -4    0.23    0.36
   9   6  -4    0.79    0.42
   9   6  -4    0.91    0.80
   9   6  -3   92.17    5.47
   9   6  -3   98.28    5.62
   9   6  -3  105.65    5.57
   9   6  -3  115.33    6.02
   9   6  -3  116.65    5.96
   9   6  -2   28.84    2.02
   9   6  -2   31.98    2.13
   9   6  -2   27.16    1.95
   9   6  -2   32.88    2.49
   9   6  -2   34.37    2.40
   9   6  -1    3.59    0.88
   9   6  -1    3.20    0.64
   9   6  -1    2.32    0.60
   9   6  -1    3.04    0.54
   9   6  -1    4.64    1.01
   9   6   0    6.71    1.11
   9   6   0   10.13    1.92
   9   6   0    7.61    0.96
   9   6   0    8.39    0.94
   9   6   0    9.14    1.33
   9   6   1    1.06    0.87
   9   6   1    0.62    0.80
   9   6   1    0.88    0.50
   9   6   1    1.29    0.48
   9   6   1    0.87    0.82
   9   6   2  106.72    5.93
   9   6   2   86.59    7.23
   9   6   2   98.43    5.55
   9   6   2   97.20    5.41
   9   6   2  102.05    6.00
   9   6   3   19.15    1.92
   9   6   3   20.93    1.53
   9   6   3   22.05    2.11
   9   6   4   71.34    4.42
   9   6   4   81.32    4.50
   9   6   4   67.83    4.02
   9   6   4   62.02    3.78
   9   6   4   70.56    4.53
   9   6   5   79.21    4.69
   9   6   5   60.26    5.84
   9   6   5   75.30    4.32
   9   6   5   60.94    5.89
   9   6   5   69.43    4.03
   9   6   5   83.70    4.94
   9   6   6    0.28    0.87
   9   6   6   -0.20    0.79
   9   6   6    1.42    1.02
   9   6   6   -0.07    0.57
   9   6   6   -0.80    1.11
   9   6   7  116.24    6.28
   9   6   7   92.14    7.56
   9   6   7  107.13    5.83
   9   6   7  102.51    6.35
   9   6   8    3.83    1.34
   9   6   8    4.16    1.12
   9   6   8    3.17    1.24
   9   6   8    4.00    0.77
   9   6   9   98.97    5.75
   9   6   9   86.13    7.00
   9   6   9   97.29    5.27
   9   6  10   28.20    2.34
   9   6  10   26.32    1.86
   9   6  10   28.08    3.39
   9   6  10   22.19    1.67
   9   6  11    1.85    0.47
   9   6  11    1.89    0.88
   9   6  11    1.70    0.54
   9   6  12   93.68    5.37
   9   6  12   81.68    4.74
   9   6  12   92.73    4.90
   9   6  12   85.30    4.77
   9   6  13   15.58    1.71
   9   6  13   18.17    1.37
   9   6  14   15.15    1.56
   9   6  14   13.77    1.16
   9   6  15    3.88    0.57
   9   6  15    3.23    0.83
   9   6  16    7.02    1.02
   9   6  16    6.27    0.68
   9   6  17   44.76    2.84
   9   6  18    7.35    0.83
  -9  -6 -20    1.02    0.29
   9   7 -10    9.57    0.73
   9   7  -9   17.86    1.19
   9   7  -9   16.07    1.15
   9   7  -8    8.66    0.79
   9   7  -7    1.35    0.39
   9   7  -6   54.04    3.12
   9   7  -5    1.04    0.51
   9   7  -5    1.10    0.45
   9   7  -4  358.41   17.67
   9   7  -4  344.57   17.59
   9   7  -3   62.27    3.68
   9   7  -3   67.14    3.82
   9   7  -3   69.27    3.79
   9   7  -2   71.50    4.34
   9   7  -2   76.03    4.44
   9   7  -2   85.22    4.48
   9   7  -2   75.26    4.34
   9   7  -2   88.87    4.73
   9   7  -1  154.44    8.29
   9   7  -1  159.28    8.36
   9   7  -1  162.50    8.33
   9   7  -1  146.97    8.19
   9   7  -1  174.41    8.61
   9   7   0    7.98    1.15
   9   7   0    7.78    0.93
   9   7   0    7.84    0.95
   9   7   0    8.87    0.94
   9   7   0    5.78    0.76
   9   7   0    7.59    1.26
   9   7   1   20.74    3.06
   9   7   1   26.92    1.97
   9   7   1   26.41    1.87
   9   7   1   26.89    2.35
   9   7   1   26.61    2.18
   9   7   2    4.29    0.96
   9   7   2    3.00    1.28
   9   7   2    6.20    0.89
   9   7   2    4.13    0.68
   9   7   2    4.45    1.21
   9   7   3   92.49    5.36
   9   7   3   73.89    6.68
   9   7   3   67.74    6.58
   9   7   3   90.40    4.92
   9   7   3   98.97    5.61
   9   7   4   47.11    3.43
   9   7   4   46.31    4.81
   9   7   4   48.75    2.96
   9   7   4   57.88    3.76
   9   7   5   16.09    1.71
   9   7   5   17.02    2.69
   9   7   5   18.44    1.58
   9   7   5   11.44    2.35
   9   7   5   16.01    1.28
   9   7   5   17.81    1.96
   9   7   6  184.05   13.16
   9   7   6  233.68   11.38
   9   7   6  168.15   13.29
   9   7   6  227.96   11.90
   9   7   7   25.37    2.31
   9   7   7   25.17    3.25
   9   7   7   23.47    1.90
   9   7   7   19.52    3.16
   9   7   7   26.47    2.44
   9   7   8   74.31    4.58
   9   7   8   72.50    4.12
   9   7   8   58.77    5.58
   9   7   8   57.76    5.81
   9   7   8   65.64    4.60
   9   7   9   11.39    1.54
   9   7   9   12.55    1.24
   9   7  10   39.67    3.23
   9   7  10   45.33    2.83
   9   7  10   45.58    2.87
   9   7  11   82.48    4.93
   9   7  11   71.60    4.28
   9   7  11   77.93    4.40
   9   7  12    6.58    1.19
   9   7  12    7.43    0.81
   9   7  12    4.55    0.73
   9   7  13   25.37    2.10
   9   7  13   18.94    1.41
   9   7  14    2.43    0.90
   9   7  15    3.85    0.94
   9   7  16    8.59    1.10
   9   7  17    0.40    0.57
   9   7  18  113.63    6.08
   9   7  19    2.58    0.48
   9   8  -9   24.81    1.39
   9   8  -9   24.34    1.39
   9   8  -8   20.63    1.32
   9   8  -8   18.84    1.25
   9   8  -8   17.42    1.35
   9   8  -7   26.75    1.71
   9   8  -7   24.26    1.64
   9   8  -7   25.74    1.77
   9   8  -6    0.47    0.37
   9   8  -6   -0.16    0.52
   9   8  -5   83.10    4.53
   9   8  -5   82.46    4.74
   9   8  -4   30.99    2.03
   9   8  -4   32.14    2.32
   9   8  -3    2.86    0.53
   9   8  -3    3.14    0.59
   9   8  -3    2.87    0.89
   9   8  -2  190.63   10.21
   9   8  -2  186.93   10.28
   9   8  -2  204.41   10.27
   9   8  -1   13.48    1.42
   9   8  -1   15.88    1.32
   9   8  -1   16.13    1.36
   9   8  -1   15.56    1.26
   9   8  -1   17.36    1.71
   9   8  -1   15.88    1.46
   9   8   0   14.38    1.55
   9   8   0   21.11    1.58
   9   8   0   19.29    1.55
   9   8   0   19.13    1.49
   9   8   0   18.24    1.43
   9   8   0   20.92    1.92
   9   8   0   21.65    1.71
   9   8   1    8.98    1.12
   9   8   1    7.19    1.04
   9   8   1    8.94    1.01
   9   8   1    7.83    0.98
   9   8   2    8.56    1.13
   9   8   2    8.27    1.10
   9   8   2    7.93    1.00
   9   8   2    7.46    0.99
   9   8   3   41.33    2.77
   9   8   3   42.64    2.66
   9   8   4    0.48    0.68
   9   8   4    1.21    0.81
   9   8   5  135.48    7.69
   9   8   5  151.42    7.94
   9   8   5  156.12    7.66
   9   8   6    0.76    0.71
   9   8   6   -0.59    0.84
   9   8   6   -0.21    0.50
   9   8   6    0.18    0.75
   9   8   7   26.58    2.16
   9   8   7   28.63    2.03
   9   8   7   21.24    2.13
   9   8   8   46.06    2.85
   9   8   8   43.72    2.84
   9   8   9    0.13    0.51
   9   8   9    0.19    0.52
   9   8   9    0.45    0.73
   9   8  10   93.04    5.65
   9   8  10   95.67    5.21
   9   8  10   98.75    5.20
   9   8  11   -0.39    0.89
   9   8  11    0.23    0.43
   9   8  11    0.93    0.48
   9   8  11    0.85    0.77
   9   8  12   84.21    4.82
   9   8  12   76.03    4.14
   9   8  12   79.92    4.25
   9   8  13    4.22    1.06
   9   8  13    4.19    0.58
   9   8  13    2.29    0.78
   9   8  14   49.35    3.11
   9   8  14   36.91    2.75
   9   8  15    5.55    1.02
   9   8  16    1.05    0.68
   9   8  17   97.10    5.39
   9   8  18    0.26    0.45
   9   8  19   12.48    0.99
   9   9  -8   12.17    0.90
   9   9  -8   11.10    0.81
   9   9  -7    4.82    0.55
   9   9  -7    4.43    0.63
   9   9  -6    2.80    0.51
   9   9  -6    2.20    0.43
   9   9  -6    2.58    0.54
   9   9  -5   31.34    2.02
   9   9  -5   31.12    1.94
   9   9  -5   30.52    2.06
   9   9  -4    0.58    0.40
   9   9  -4   -0.04    0.33
   9   9  -4   -0.05    0.54
   9   9  -3   49.14    2.78
   9   9  -3   43.01    2.94
   9   9  -2    3.18    0.57
   9   9  -2    2.03    0.50
   9   9  -2    3.92    0.61
   9   9  -2    3.34    0.81
   9   9  -1   54.54    3.47
   9   9  -1   53.86    3.27
   9   9  -1   53.57    3.30
   9   9  -1   57.90    3.27
   9   9  -1   61.28    3.62
   9   9   0   24.48    1.97
   9   9   0   23.57    1.79
   9   9   0   24.39    1.79
   9   9   0   24.31    1.70
   9   9   0   27.57    2.13
   9   9   1    8.32    1.16
   9   9   1    8.59    1.03
   9   9   1   10.21    1.10
   9   9   1   10.02    1.31
   9   9   1   10.53    1.08
   9   9   2   36.38    2.78
   9   9   2   45.46    2.75
   9   9   2   44.41    3.02
   9   9   2   40.69    2.68
   9   9   3    1.83    0.67
   9   9   3    3.18    0.80
   9   9   3    3.91    0.73
   9   9   3    4.05    0.65
   9   9   3    2.02    0.89
   9   9   4   64.92    3.89
   9   9   4   57.68    3.95
   9   9   4   76.22    3.84
   9   9   4   53.93    3.77
   9   9   4   77.24    4.35
   9   9   5    0.66    0.57
   9   9   5    0.17    0.69
   9   9   5   -0.29    0.68
   9   9   5   -0.81    0.56
   9   9   5    0.35    0.42
   9   9   5    0.09    0.82
   9   9   5   -0.66    0.87
   9   9   6    6.64    1.01
   9   9   6    9.93    1.35
   9   9   6    8.65    1.10
   9   9   6    6.19    1.21
   9   9   6   10.96    1.42
   9   9   7   23.75    1.99
   9   9   7   27.36    2.29
   9   9   7   30.76    2.09
   9   9   7   21.97    2.20
   9   9   7   27.79    2.37
   9   9   8    1.46    0.63
   9   9   8    1.76    0.88
   9   9   8    1.46    0.56
   9   9   8    0.66    0.83
   9   9   8    1.35    0.89
   9   9   9   68.95    4.28
   9   9   9   70.85    3.93
   9   9   9   68.39    4.30
   9   9  10    4.41    1.17
   9   9  10    5.38    0.81
   9   9  10    5.49    0.82
   9   9  10    4.56    1.07
   9   9  10    4.87    1.16
   9   9  11   82.59    4.49
   9   9  11   81.92    4.45
   9   9  11   67.10    4.71
   9   9  11   78.92    4.88
   9   9  12    2.54    0.55
   9   9  12    1.95    0.51
   9   9  12    1.36    0.82
   9   9  12    1.99    0.88
   9   9  13   18.92    1.35
   9   9  13   18.08    1.75
   9   9  14   11.08    1.32
   9   9  14    8.98    1.14
   9   9  15    4.54    0.86
   9   9  15    2.95    0.72
   9   9  16   35.82    2.19
   9   9  16   24.69    1.90
   9   9  17    1.94    0.58
   9   9  18   16.95    1.30
   9   9  18   16.09    1.35
   9   9  19    9.10    0.76
   9   9  19    6.38    0.77
   9  10  -6    6.78    0.72
   9  10  -6    6.32    0.70
   9  10  -5    2.50    0.46
   9  10  -5    2.32    0.47
   9  10  -5    1.66    0.42
   9  10  -4   37.97    2.15
   9  10  -4   37.04    2.08
   9  10  -3    6.52    0.71
   9  10  -3    4.46    0.70
   9  10  -2   30.59    1.91
   9  10  -2   27.57    1.81
   9  10  -2   24.35    1.88
   9  10  -1    5.15    0.93
   9  10  -1    6.10    0.70
   9  10  -1    6.10    0.79
   9  10  -1    5.39    0.83
   9  10  -1    5.70    0.86
   9  10   0   13.69    1.47
   9  10   0   14.29    1.27
   9  10   0   19.63    1.41
   9  10   0   17.58    1.50
   9  10   1   44.04    3.06
   9  10   1   42.42    2.86
   9  10   1   48.03    2.94
   9  10   1   48.13    3.06
   9  10   2   -0.83    0.72
   9  10   2    0.17    0.42
   9  10   2    0.05    0.39
   9  10   2    0.07    0.63
   9  10   3   31.96    2.51
   9  10   3   38.31    2.43
   9  10   3   39.53    2.36
   9  10   3   31.65    2.42
   9  10   3   36.95    2.57
   9  10   4    9.53    1.19
   9  10   4    9.17    0.91
   9  10   4    6.59    0.99
   9  10   4    9.53    1.23
   9  10   5   24.96    2.16
   9  10   5   31.88    1.93
   9  10   5   25.95    1.98
   9  10   5   32.90    2.33
   9  10   5   24.17    2.29
   9  10   6   16.56    1.35
   9  10   6   15.26    1.60
   9  10   6   20.47    1.56
   9  10   6   19.03    1.73
   9  10   6   15.77    1.79
   9  10   7    5.15    0.77
   9  10   7    6.98    1.04
   9  10   7    7.23    0.91
   9  10   7    5.33    1.14
   9  10   7    5.72    1.05
   9  10   8   47.13    2.92
   9  10   8   45.37    2.70
   9  10   8   40.32    3.00
   9  10   8   42.18    2.91
   9  10   9    1.09    0.45
   9  10   9    0.31    0.64
   9  10   9    0.48    0.45
   9  10   9   -0.78    0.86
   9  10  10   60.52    3.93
   9  10  10   81.64    4.44
   9  10  10   74.63    4.10
   9  10  10   65.64    4.37
   9  10  10   75.90    4.37
   9  10  11    2.02    0.79
   9  10  11    2.30    0.54
   9  10  11    2.01    0.53
   9  10  11    1.27    0.84
   9  10  11    2.29    0.79
   9  10  12    5.23    1.02
   9  10  12    7.45    0.77
   9  10  12    6.94    1.13
   9  10  12    6.88    1.06
   9  10  13   46.72    2.94
   9  10  13   43.18    2.47
   9  10  13   37.18    2.81
   9  10  13   44.29    2.89
   9  10  14    3.19    0.78
   9  10  14    4.55    0.87
   9  10  15   17.13    1.53
   9  10  15   22.66    1.66
   9  10  16   -0.20    0.45
   9  10  16    0.18    0.45
   9  10  17    8.60    0.89
   9  10  17    7.05    0.84
   9  10  18    1.74    0.42
   9  10  18    1.50    0.40
   9  11  -5    6.28    1.04
   9  11  -4    0.92    0.90
   9  11  -3   32.54    2.15
   9  11  -2   19.71    1.43
   9  11  -2   16.82    1.70
   9  11  -1    2.18    0.54
   9  11   0   55.82    3.37
   9  11   0   56.62    3.14
   9  11   0   63.51    3.28
   9  11   1    0.92    0.64
   9  11   1    0.44    0.40
   9  11   1    0.60    0.47
   9  11   1   -0.13    0.44
   9  11   2   12.52    1.34
   9  11   2   15.02    1.21
   9  11   2   12.69    1.18
   9  11   3    0.19    0.67
   9  11   3    0.91    0.68
   9  11   3    1.33    0.51
   9  11   4   25.59    2.00
   9  11   4   27.88    1.95
   9  11   4   22.42    1.81
   9  11   4   25.30    1.86
   9  11   5   18.07    1.62
   9  11   5   14.56    1.35
   9  11   5   18.45    1.48
   9  11   6    4.91    0.98
   9  11   6    8.65    0.96
   9  11   6    6.41    1.09
   9  11   7   27.36    2.18
   9  11   7   31.73    2.18
   9  11   7   30.23    2.40
   9  11   8   -0.34    0.51
   9  11   8   -0.39    0.75
   9  11   8    0.23    0.55
   9  11   9   24.28    1.84
   9  11   9   24.49    1.86
   9  11   9   22.08    2.02
   9  11  10    5.76    0.86
   9  11  10    5.58    1.00
   9  11  10    5.39    0.85
   9  11  11    3.97    0.75
   9  11  11    3.48    0.58
   9  11  11    3.20    0.82
   9  11  11    1.65    0.63
   9  11  12   22.97    1.78
   9  11  12   24.78    1.59
   9  11  12   25.06    1.93
   9  11  12   22.30    1.77
   9  11  13    2.64    0.61
   9  11  13    1.59    0.34
   9  11  13    2.76    0.72
   9  11  13    2.18    0.59
   9  11  14   38.11    2.68
   9  11  14   41.95    2.63
   9  11  15    3.12    0.57
   9  11  15    2.80    0.59
   9  11  15    3.06    0.57
   9  11  16    2.33    0.48
   9  11  16    1.97    0.44
   9  11  16    2.35    0.43
   9  11  17    3.34    0.46
   9  12  -2   10.99    1.39
   9  12  -1   51.92    3.18
   9  12   0    3.92    1.48
   9  12   1   31.90    2.20
   9  12   1   35.31    2.03
   9  12   1   34.63    2.50
   9  12   2    3.42    0.72
   9  12   2    4.46    0.58
   9  12   2    3.81    1.59
   9  12   3   11.27    1.17
   9  12   3   15.57    1.86
   9  12   4   12.48    1.23
   9  12   5    1.84    0.65
   9  12   6   36.20    2.42
   9  12   7    1.09    0.64
   9  12   8   21.05    1.66
   9  12   8   23.35    1.85
   9  12   9   12.81    1.22
   9  12   9   14.68    1.37
   9  12  10    0.18    0.38
   9  12  10    1.42    0.65
   9  12  11   20.48    1.31
   9  12  11   15.78    1.50
   9  12  12   -0.10    0.34
   9  12  12    0.34    0.27
   9  12  12    0.87    0.55
   9  12  13   20.55    1.41
   9  12  13   20.59    1.56
   9  12  14    4.26    0.52
   9  12  14    3.05    0.59
   9  12  15    1.03    0.36
   9  13   2    1.15    0.39
   9  13   2    1.62    0.30
   9  13   3   15.94    1.27
   9  13   3   19.02    1.19
   9  13   4    0.34    0.39
   9  13   4   -0.11    0.29
   9  13   5   26.31    1.76
   9  13   6    1.19    0.46
   9  13   7   28.60    1.87
   9  13   8    9.35    0.95
   9  13   8   12.03    0.92
   9  13   9    0.44    0.40
   9  13   9    1.59    0.36
   9  13  10   10.82    0.98
   9  13  10   15.07    0.96
   9  13  11    0.26    0.21
   9  13  12    8.59    0.84
 -10   5   1   21.06    1.25
 -10   5   0    4.45    0.44
 -10   5  -1    9.90    0.74
  10  -5   3   35.78    1.99
 -10   5  -4   23.23    1.36
  10  -5   4   23.73    1.38
 -10   4   5    2.52    0.37
 -10   4   4    7.66    0.63
  10  -4  -4    6.03    0.61
 -10   4   3   30.40    1.80
  10  -4  -3   30.23    1.88
 -10   4   2   15.77    1.04
 -10   4   2   13.23    0.99
  10  -4  -2   13.15    1.00
 -10   4   1    0.14    0.27
 -10   4   1   -0.21    0.32
  10  -4  -1   -0.03    0.25
 -10   4   0   54.71    2.89
 -10   4   0   63.82    3.02
  10  -4   0   56.68    2.96
 -10   4  -1    0.67    0.35
  10  -4   1    0.77    0.33
 -10   4  -2    0.18    0.32
  10  -4   2    0.68    0.34
  10  -4   3    0.42    0.29
 -10   4  -4    0.88    0.35
  10  -4   4    0.65    0.34
 -10   4  -5   74.36    3.83
  10  -4   5   68.30    3.81
 -10   4  -6    0.32    0.26
  10  -4   6    0.96    0.29
 -10   4  -7   24.19    1.56
  10  -4   7   34.45    1.71
  10  -4   8    1.20    0.28
  10  -4   9    3.00    0.34
 -10   3   7   -0.08    0.20
  10  -3  -7    0.24    0.18
 -10   3   7    0.29    0.20
 -10   3   6    0.48    0.30
  10  -3  -6    0.74    0.26
 -10   3   6    0.81    0.28
 -10   3   5   22.29    1.46
 -10   3   4   11.67    0.87
  10  -3  -4   13.66    1.03
 -10   3   3   21.98    1.42
  10  -3  -3   20.61    1.47
 -10   3   2    4.13    0.65
 -10   3   2    5.09    0.63
  10  -3  -2    3.29    0.58
 -10   3   1   55.30    3.19
 -10   3   1   59.31    3.19
  10  -3  -1   50.11    3.09
 -10   3   0    9.57    0.91
  10  -3   0    9.11    0.88
 -10   3   0   10.15    0.97
  10  -3   0    6.94    0.78
 -10   3  -1    5.30    0.67
 -10   3  -1    4.12    0.67
  10  -3   1    3.94    0.55
 -10   3  -2   19.26    1.42
  10  -3   2   18.07    1.44
  10  -3   3    0.28    0.33
  10  -3   4   10.65    0.97
 -10   3  -5    3.61    0.60
  10  -3   5    2.88    0.54
 -10   3  -6   79.06    3.94
  10  -3   6   78.57    3.90
 -10   3  -7    0.03    0.28
 -10   3  -7    0.52    0.34
  10  -3   7    0.28    0.30
 -10   3  -8    0.30    0.29
 -10   3  -8    0.13    0.26
  10  -3   8    0.10    0.29
 -10   3  -9   16.94    1.24
  10  -3   9   23.06    1.33
  10  -3  10    0.53    0.26
  10  -3  11   52.95    2.82
 -10   2   8    5.86    0.56
  10  -2  -8    8.41    0.62
 -10   2   7   19.05    1.18
  10  -2  -7   17.57    1.19
 -10   2   7   15.41    1.11
 -10   2   6    7.96    0.79
  10  -2  -6    8.93    0.81
 -10   2   5    1.60    0.45
 -10   2   4   68.27    3.54
  10  -2  -4   61.53    3.43
 -10   2   3    2.50    0.50
  10  -2  -3    1.19    0.48
 -10   2   2   61.59    3.47
  10  -2  -2   57.27    3.44
 -10   2   1    2.87    0.68
 -10   2   1    3.34    0.64
  10  -2  -1    3.14    0.60
  10  -2  -1    3.68    0.60
 -10   2   0   31.52    2.13
  10  -2   0   28.23    2.01
 -10   2   0   32.24    2.11
  10  -2   0   30.36    2.00
  10  -2   0   27.31    1.95
 -10   2  -1   18.03    1.52
 -10   2  -1   22.26    1.63
  10  -2   1   19.11    1.47
  10  -2   1   17.47    1.40
 -10   2  -2   17.29    1.45
  10  -2   2   17.01    1.41
 -10   2  -2   18.55    1.51
  10  -2   2   19.33    1.40
  10  -2   2   15.50    1.25
 -10   2  -3   50.96    3.22
  10  -2   3   55.74    3.29
 -10   2  -3   51.81    3.33
  10  -2   3   59.78    3.26
 -10   2  -4    6.29    0.83
 -10   2  -4    7.60    0.77
  10  -2   4    9.10    0.94
  10  -2   4   10.50    0.95
 -10   2  -5   73.83    4.19
  10  -2   5   78.13    4.34
 -10   2  -5   82.22    4.47
 -10   2  -6    9.69    0.91
 -10   2  -6   10.57    1.06
 -10   2  -7   -0.24    0.41
 -10   2  -7    0.39    0.40
 -10   2  -8   19.05    1.38
 -10   2  -8   19.40    1.40
 -10   2  -9    0.45    0.39
 -10   2 -10   69.16    3.83
  10  -2  10   71.20    3.83
 -10   2 -11    2.88    0.50
  10  -2  11    2.22    0.44
 -10   2 -12   19.75    1.30
  10  -2  12   19.59    1.26
  10  -2  13    7.69    0.60
  10  -1  -9    0.36    0.20
 -10   1   8   39.70    2.02
  10  -1  -8   42.84    2.10
 -10   1   7    0.40    0.32
  10  -1  -7    0.39    0.34
 -10   1   7    0.44    0.28
 -10   1   6   -0.04    0.40
  10  -1  -6   -0.08    0.38
 -10   1   5   48.99    2.98
 -10   1   4    2.31    0.62
 -10   1   4    2.18    0.47
 -10   1   3   46.99    2.95
 -10   1   3   40.73    2.74
  10  -1  -3   51.13    2.88
 -10   1   2    1.56    0.65
 -10   1   2    2.22    0.59
  10  -1  -2    2.08    0.57
  10  -1  -2    1.89    0.48
 -10   1   1   53.62    3.27
  10  -1  -1   52.23    3.14
  10  -1  -1   53.40    3.20
 -10   1   0   65.75    3.93
 -10   1   0   61.94    3.82
  10  -1   0   65.57    3.71
  10  -1   0   62.61    3.71
 -10   1  -1    2.03    0.68
  10  -1   1    2.59    0.56
  10  -1   1    2.67    0.60
 -10   1  -2  130.13    7.02
  10  -1   2  140.25    6.92
  10  -1   2  119.10    6.76
 -10   1  -3    0.51    0.57
  10  -1   3    0.30    0.51
  10  -1   3    1.18    0.50
 -10   1  -4   85.67    5.25
  10  -1   4   97.77    5.30
  10  -1   4  101.81    5.27
 -10   1  -5    1.62    0.55
 -10   1  -5    1.33    0.60
  10  -1   5    2.79    0.60
 -10   1  -6    1.45    0.48
 -10   1  -6    1.32    0.51
 -10   1  -6    1.10    0.57
  10  -1   6    1.34    0.48
 -10   1  -7   65.82    3.93
 -10   1  -7   72.30    4.09
  10  -1   7   71.39    3.96
  10  -1   8    1.68    0.53
 -10   1  -8    2.11    0.57
 -10   1  -8    1.65    0.55
  10  -1   8    2.16    0.53
 -10   1  -9   17.10    1.34
 -10   1  -9   14.30    1.26
  10  -1   9   16.04    1.27
  10  -1   9   16.40    1.29
 -10   1 -10    8.51    0.93
  10  -1  10    9.42    0.91
 -10   1 -11   77.15    4.27
  10  -1  11   77.82    4.23
  10  -1  12   -0.14    0.35
 -10   1 -12    0.31    0.41
  10  -1  13    0.12    0.28
 -10   1 -13    0.53    0.34
  10  -1  14   25.96    1.55
  10   0  -9   56.03    3.01
 -10   0   8   14.20    1.05
  10   0  -8   17.27    1.15
 -10   0   7    1.18    0.39
  10   0  -7    0.71    0.39
 -10   0   7    0.88    0.31
 -10   0   6   15.28    1.24
  10   0  -6   14.36    1.20
 -10   0   5    2.26    0.62
 -10   0   4   39.01    2.45
 -10   0   4   32.67    2.18
 -10   0   3    0.46    0.57
 -10   0   3    0.81    0.48
  10   0  -3   -0.11    0.44
 -10   0   2   34.05    2.41
  10   0  -2   33.05    2.16
  10   0  -2   32.85    2.23
 -10   0   1   12.61    1.41
  10   0  -1   14.97    1.23
  10   0  -1   14.70    1.29
  10   0   0   33.92    2.12
  10   0   0   32.15    2.12
  10   0   0   26.49    2.01
  10   0   1   49.31    3.04
  10   0   1   45.68    3.00
  10   0   2   28.53    1.86
  10   0   2   26.05    1.77
  10   0   3   78.74    4.16
  10   0   3   70.73    3.99
  10   0   3   66.39    4.05
  10   0   4    4.47    0.74
  10   0   4    6.15    0.81
  10   0   5    2.85    0.61
  10   0   5    3.95    0.69
  10   0   6   42.30    2.51
  10   0   6   42.33    2.57
  10   0   7   -0.11    0.45
  10   0   7    0.05    0.43
  10   0   7    0.22    0.44
  10   0   8    6.72    0.83
 -10   0  -9    0.38    0.45
  10   0   9    0.25    0.40
 -10   0 -10    1.81    0.52
  10   0  10    2.25    0.52
 -10   0 -11    9.91    1.03
  10   0  11    9.25    0.91
 -10   0 -12    7.48    0.90
  10   0  12    7.96    0.82
  10   0  12    8.81    0.86
  10   0  13   37.81    2.26
  10   0  13   38.18    2.29
  10   0  14    0.13    0.31
  10   0  14    0.28    0.29
 -10   0 -15   10.24    0.83
  10   0  15   10.66    0.77
  10   0  15    9.69    0.79
  10   1  -9    6.74    0.62
 -10  -1   8    1.52    0.34
  10   1  -8    1.81    0.44
 -10  -1   7   42.02    2.59
  10   1  -7   46.99    2.66
 -10  -1   6    2.65    0.59
  10   1  -6    2.51    0.56
 -10  -1   5   18.47    1.52
 -10  -1   4    1.45    0.58
 -10  -1   3   30.11    2.24
  10   1  -3   31.64    2.15
  10   1  -2   40.98    2.62
  10   1  -1    0.06    0.49
  10   1  -1    0.81    0.49
  10   1  -1    1.09    0.42
  10   1   0   57.30    3.35
  10   1   0   58.88    3.40
  10   1   0   52.91    3.41
  10   1   1    0.12    0.54
  10   1   1   -0.05    0.43
  10   1   1    0.11    0.40
  10   1   2    3.48    0.73
  10   1   2    3.17    0.62
  10   1   2    3.81    0.67
  10   1   3    0.52    0.56
  10   1   3    0.23    0.34
  10   1   3    0.62    0.46
  10   1   4    1.70    0.64
  10   1   4    0.96    0.36
  10   1   4    2.03    0.52
  10   1   5   50.37    3.43
  10   1   5   61.79    3.41
  10   1   6    2.36    0.64
  10   1   6    2.56    0.72
  10   1   6    2.48    0.55
  10   1   7   61.87    4.06
  10   1   7   72.62    4.03
  10   1   7   73.88    4.09
  10   1   8   11.91    1.26
  10   1   8   13.19    1.18
  10   1   8   13.58    1.26
  10   1   9    6.91    0.85
  10   1   9    4.29    0.81
  10   1   9    6.23    0.79
  10   1  10   44.10    3.03
  10   1  10   54.19    3.05
  10   1  10   51.36    3.06
  10   1  11   17.40    1.51
  10   1  11   20.30    1.49
  10   1  11   21.31    1.56
  10   1  12   25.60    1.75
  10   1  13    0.31    0.38
  10   1  13   -0.08    0.35
 -10  -1 -14    8.82    0.90
  10   1  14    7.84    0.76
 -10  -1 -15   26.26    1.72
  10   1  15   27.89    1.68
 -10  -1 -16    5.91    0.58
  10   1  16    6.13    0.55
  10   2  -9    0.99    0.31
  10   2  -8   97.58    5.16
 -10  -2   7    1.35    0.42
  10   2  -7    1.35    0.45
  10   2  -7    0.87    0.38
 -10  -2   6   62.80    3.55
  10   2  -6   74.05    3.59
 -10  -2   5    2.62    0.66
  10   2  -5    2.29    0.55
 -10  -2   4   11.05    1.14
  10   2  -4    8.79    0.96
  10   2  -3   53.78    2.97
  10   2  -3   40.94    2.79
  10   2  -2    1.44    0.67
  10   2  -2    1.66    0.56
  10   2  -2    1.29    0.54
  10   2  -1   53.89    3.29
  10   2  -1   64.60    3.50
  10   2  -1   50.60    3.37
  10   2  -1   65.48    3.61
  10   2   0    2.57    0.76
  10   2   0    2.68    0.59
  10   2   0    2.05    0.51
  10   2   0    2.61    0.64
  10   2   1    5.44    0.89
  10   2   1    3.39    0.61
  10   2   1    4.17    0.65
  10   2   1    4.22    0.74
  10   2   2   88.42    4.90
  10   2   2   86.00    4.64
  10   2   2   86.73    4.62
  10   2   2   71.36    4.64
  10   2   3    1.41    0.69
  10   2   3    0.71    0.38
  10   2   3    1.55    0.48
  10   2   3    0.47    0.58
  10   2   4   20.62    1.79
  10   2   4   22.27    1.58
  10   2   4   19.83    1.43
  10   2   4   18.09    1.58
  10   2   5    1.85    0.77
  10   2   5    2.08    0.54
  10   2   6   36.96    2.78
  10   2   6   43.56    2.61
  10   2   6   39.78    2.63
  10   2   7    0.73    0.52
  10   2   7    0.85    0.62
  10   2   7    0.49    0.44
  10   2   8    9.84    1.21
  10   2   8   10.13    1.02
  10   2   8    8.40    1.02
  10   2   9   63.32    3.65
  10   2   9   61.90    3.70
  10   2  10    3.38    0.64
  10   2  10    2.24    0.54
  10   2  11   30.15    2.02
  10   2  11   30.73    2.09
  10   2  12    1.61    0.51
  10   2  12    2.45    0.52
  10   2  13    0.24    0.43
  10   2  13    0.56    0.37
  10   2  14    0.86    0.41
 -10  -2 -14    0.82    0.49
  10   2  14    0.31    0.31
  10   2  15   -0.11    0.33
 -10  -2 -15    0.69    0.40
  10   2  15    0.10    0.30
 -10  -2 -16   17.72    1.26
  10   2  16   18.18    1.22
  10   2  16   21.11    1.31
  10   2  17    6.62    0.58
  10   2  17    9.17    0.67
  10   3  -9   22.45    1.26
  10   3  -9   15.08    1.17
  10   3  -8    7.97    0.74
  10   3  -8    5.57    0.70
  10   3  -7   89.52    4.43
  10   3  -7   73.04    4.33
 -10  -3   6    5.92    0.78
  10   3  -6    7.87    0.84
  10   3  -6    7.21    0.84
 -10  -3   5    6.99    0.88
  10   3  -5    7.55    0.84
  10   3  -5    5.17    0.81
  10   3  -4   20.02    1.59
  10   3  -3    2.41    0.56
  10   3  -3    1.54    0.63
  10   3  -2   58.07    3.33
  10   3  -2   49.08    3.33
  10   3  -2   58.84    3.49
  10   3  -1    0.42    0.63
  10   3  -1   -0.11    0.40
  10   3  -1    0.69    0.55
  10   3   0    4.06    0.84
  10   3   0    2.89    0.58
  10   3   0    3.41    0.77
  10   3   1   13.64    1.16
  10   3   1   11.21    1.28
  10   3   1   14.20    1.43
  10   3   2   34.29    2.50
  10   3   2   33.69    2.15
  10   3   2   30.32    2.35
  10   3   3   65.44    3.93
  10   3   3   56.93    3.48
  10   3   3   63.04    3.51
  10   3   3   60.99    3.79
  10   3   4   -0.25    0.74
  10   3   4    0.64    0.32
  10   3   4    1.30    0.41
  10   3   4    0.51    0.63
  10   3   5   38.05    2.72
  10   3   5   35.14    2.27
  10   3   5   34.38    2.52
  10   3   6   12.01    1.48
  10   3   6   14.32    1.18
  10   3   6   11.60    1.38
  10   3   6   14.92    1.28
  10   3   7    5.30    0.78
  10   3   7    5.32    1.05
  10   3   7    5.24    0.72
  10   3   7    4.75    0.95
  10   3   8   39.81    2.53
  10   3   8   37.08    2.76
  10   3   8   44.41    2.66
  10   3   9   16.69    1.30
  10   3   9   16.85    1.38
  10   3  10   19.58    1.48
  10   3  10   16.53    1.67
  10   3  11    4.48    0.70
  10   3  11    4.05    0.64
  10   3  12   20.42    1.45
  10   3  12   17.14    1.61
  10   3  12   21.01    1.56
  10   3  13   13.39    1.06
  10   3  13   14.44    1.14
  10   3  14    7.18    0.74
  10   3  14    7.53    0.82
 -10  -3 -15    9.98    0.90
  10   3  15    7.84    0.74
  10   3  15    8.00    0.82
 -10  -3 -16   15.64    1.18
 -10  -3 -16   15.65    1.14
  10   3  16   16.65    1.13
  10   3  17   44.68    2.30
  10   3  17   51.17    2.43
  10   4  -9    0.18    0.24
  10   4  -9   -0.08    0.39
  10   4  -8   37.60    2.04
  10   4  -8   29.48    2.01
  10   4  -7    0.59    0.37
  10   4  -7    0.69    0.47
  10   4  -6    1.76    0.49
  10   4  -6    1.82    0.60
 -10  -4   5   27.65    2.02
  10   4  -5   33.49    2.05
  10   4  -5   29.71    2.08
  10   4  -4   37.69    2.51
  10   4  -3   22.11    1.58
  10   4  -3   18.87    1.66
  10   4  -2   -0.14    0.66
  10   4  -2   -0.16    0.43
  10   4  -2   -0.07    0.61
  10   4  -1   24.82    1.74
  10   4  -1   21.05    1.86
  10   4  -1   25.37    1.98
  10   4   0   22.08    1.60
  10   4   0   19.42    1.76
  10   4   0   21.19    1.85
  10   4   1    0.71    0.72
  10   4   1    0.67    0.38
  10   4   1    0.98    0.71
  10   4   2   55.59    3.67
  10   4   2   56.24    3.38
  10   4   2   58.09    3.32
  10   4   2   55.43    3.62
  10   4   3   25.37    2.10
  10   4   3   21.51    1.61
  10   4   3   24.03    2.03
  10   4   4   44.07    3.05
  10   4   4   43.69    2.70
  10   4   4   39.42    2.49
  10   4   4   41.69    2.96
  10   4   5    1.54    0.85
  10   4   5    3.60    0.72
  10   4   5    2.13    0.90
  10   4   6    0.90    0.47
  10   4   6    1.46    0.90
  10   4   6    2.41    0.64
  10   4   6    1.99    0.84
  10   4   7   86.80    5.15
  10   4   7   84.19    4.75
  10   4   8   14.64    1.64
  10   4   8   15.03    1.28
  10   4   9   21.08    1.80
  10   4   9   20.59    1.52
  10   4   9   21.32    1.97
  10   4   9   24.24    1.68
  10   4  10    5.93    0.78
  10   4  10    4.55    0.88
  10   4  10    4.48    0.64
  10   4  10    5.75    1.07
  10   4  11   18.34    1.60
  10   4  11   17.44    1.76
  10   4  11   19.18    1.47
  10   4  12   31.44    2.23
  10   4  12   31.15    2.42
  10   4  12   34.60    2.17
  10   4  13    2.50    0.54
  10   4  13    2.99    0.61
  10   4  13    2.73    0.80
  10   4  14   37.41    2.85
  10   4  14   51.39    2.74
  10   4  15    0.27    0.34
  10   4  15    0.31    0.50
 -10  -4 -16    9.38    0.81
  10   4  16    7.50    0.88
  10   4  16    8.91    0.77
  10   4  17    3.60    0.44
 -10  -4 -17    2.71    0.45
  10   5  -9    6.19    0.69
  10   5  -8    0.67    0.41
  10   5  -7    2.99    0.49
  10   5  -7    2.01    0.55
  10   5  -6   33.96    2.04
  10   5  -6   29.76    2.11
  10   5  -5    3.00    0.57
  10   5  -5    2.42    0.68
  10   5  -4   18.50    1.57
  10   5  -3    7.93    0.87
  10   5  -3    7.72    1.04
  10   5  -2    4.63    0.91
  10   5  -2    5.08    0.73
  10   5  -2    4.95    0.92
  10   5  -1    7.57    1.08
  10   5  -1    7.14    0.84
  10   5  -1    5.76    1.01
  10   5   0    3.22    0.92
  10   5   0    2.61    0.58
  10   5   0    2.68    0.55
  10   5   0    3.00    0.83
  10   5   1   62.98    3.75
  10   5   1   62.54    3.70
  10   5   1   65.28    4.07
  10   5   1   72.53    4.15
  10   5   2   13.37    1.51
  10   5   2   11.69    1.17
  10   5   2   12.15    1.09
  10   5   2   13.55    1.51
  10   5   3   15.89    1.70
  10   5   3   15.12    1.23
  10   5   3   16.53    1.69
  10   5   4   42.05    3.08
  10   5   4   46.20    2.74
  10   5   4   38.48    2.49
  10   5   4   43.43    3.06
  10   5   5    2.69    0.98
  10   5   5    2.10    0.63
  10   5   5    2.23    0.43
  10   5   5    1.95    0.93
  10   5   6   14.91    1.72
  10   5   6   18.02    1.46
  10   5   6   15.79    1.76
  10   5   7    0.40    0.34
  10   5   7    0.06    0.51
  10   5   7   -0.10    0.83
  10   5   8   51.86    3.38
  10   5   8   53.86    3.14
  10   5   8   51.06    3.55
  10   5   8   47.65    2.97
  10   5   9    3.30    0.56
  10   5   9    3.47    0.86
  10   5   9    2.96    0.63
  10   5   9    2.88    0.98
  10   5  10    0.33    0.36
  10   5  10    0.16    0.66
  10   5  10    0.09    0.77
  10   5  11   10.15    1.22
  10   5  11    9.93    0.95
  10   5  11   11.16    1.46
  10   5  12    6.61    1.01
  10   5  12    7.68    0.81
  10   5  12    5.50    1.11
  10   5  13   31.40    2.18
  10   5  13   27.53    2.31
  10   5  13   30.38    1.94
  10   5  14   10.46    1.04
  10   5  14    8.51    0.83
  10   5  14    9.71    1.24
  10   5  15    2.69    0.42
  10   5  15    1.64    0.53
  10   5  15    1.69    0.68
  10   5  16    0.31    0.50
  10   5  17    3.98    0.63
 -10  -5 -18    5.81    0.60
  10   6  -9    0.73    0.42
  10   6  -8    0.12    0.38
  10   6  -7   22.83    1.59
  10   6  -6    5.75    0.66
  10   6  -6    5.48    0.79
  10   6  -5   16.79    1.26
  10   6  -5   15.97    1.41
  10   6  -4   14.82    1.38
  10   6  -3    2.70    0.52
  10   6  -3    4.41    0.61
  10   6  -3    3.41    0.82
  10   6  -2   14.25    1.23
  10   6  -2   16.30    1.27
  10   6  -2   14.03    1.47
  10   6  -1   -0.18    0.39
  10   6  -1   -0.25    0.38
  10   6  -1    0.15    0.72
  10   6   0   70.96    4.15
  10   6   0   75.00    4.17
  10   6   0   78.30    4.56
  10   6   1    1.08    0.55
  10   6   1    2.26    0.51
  10   6   1    1.83    0.85
  10   6   2   10.71    1.08
  10   6   2   10.76    0.99
  10   6   2   10.46    1.38
  10   6   3   17.90    1.39
  10   6   3   20.37    1.93
  10   6   4    4.15    0.59
  10   6   4    5.09    1.14
  10   6   5   56.49    3.36
  10   6   5   51.48    3.71
  10   6   6   40.37    2.65
  10   6   6   39.99    3.05
  10   6   7   59.67    3.71
  10   6   7   53.54    3.32
  10   6   7   51.71    3.76
  10   6   8    0.35    0.72
  10   6   8    0.40    0.47
  10   6   8   -0.61    0.92
  10   6   9   -0.34    0.84
  10   6   9    0.11    0.46
  10   6   9    0.20    0.86
  10   6  10   48.39    3.34
  10   6  10   50.92    3.00
  10   6  10   48.42    3.51
  10   6  11   35.65    2.77
  10   6  11   39.21    2.41
  10   6  11   41.46    2.52
  10   6  11   38.41    2.99
  10   6  12    8.61    1.20
  10   6  12   10.16    0.95
  10   6  12    8.40    1.37
  10   6  13   32.43    2.39
  10   6  13   32.65    2.55
  10   6  14    0.74    0.60
  10   6  15    1.66    0.61
  10   6  15    2.28    0.73
  10   6  16   15.94    1.25
  10   6  16   16.55    1.46
  10   6  17   -0.13    0.29
  10   6  17    0.31    0.46
  10   6  18    0.57    0.36
  10   7  -8   20.14    1.19
  10   7  -8   16.83    1.24
  10   7  -7    1.18    0.31
  10   7  -7    1.11    0.42
  10   7  -6    8.83    0.92
  10   7  -5    0.92    0.53
  10   7  -4   24.81    1.85
  10   7  -3   45.16    2.70
  10   7  -3   45.72    2.95
  10   7  -2    2.28    0.51
  10   7  -2    2.92    0.49
  10   7  -2    3.41    0.58
  10   7  -2    2.61    0.82
  10   7  -1   90.85    5.24
  10   7  -1   92.31    5.34
  10   7  -1  100.88    5.33
  10   7  -1  103.94    5.57
  10   7   0    0.34    0.61
  10   7   0    1.63    0.49
  10   7   0    1.30    0.46
  10   7   0    1.09    0.44
  10   7   0    2.00    0.85
  10   7   1    5.29    0.99
  10   7   1    5.81    0.80
  10   7   1    6.34    0.80
  10   7   1    5.90    0.72
  10   7   1    4.90    1.06
  10   7   2    8.69    1.17
  10   7   2    7.65    0.93
  10   7   2    8.04    0.86
  10   7   2    8.95    1.28
  10   7   3   12.63    1.40
  10   7   3   10.87    0.99
  10   7   3   12.25    1.52
  10   7   4   53.00    3.69
  10   7   4   64.34    3.98
  10   7   5   30.37    2.46
  10   7   5   35.24    2.27
  10   7   5   28.43    2.58
  10   7   6   21.08    1.95
  10   7   6   20.67    1.68
  10   7   6   23.09    2.15
  10   7   7   24.80    2.17
  10   7   7   26.08    2.23
  10   7   7   26.65    1.94
  10   7   7   25.02    2.34
  10   7   8    1.74    0.85
  10   7   8    0.09    0.78
  10   7   8    0.06    0.49
  10   7   8    1.11    0.90
  10   7   9   40.22    2.93
  10   7   9   39.65    2.52
  10   7   9   37.82    2.56
  10   7   9   40.74    3.09
  10   7  10   26.87    2.24
  10   7  10   28.06    1.88
  10   7  10   27.00    1.92
  10   7  10   23.78    2.34
  10   7  11   23.26    2.05
  10   7  11   24.63    1.67
  10   7  11   23.72    1.72
  10   7  11   22.77    2.20
  10   7  12   -0.54    0.71
  10   7  12   -0.05    0.34
  10   7  12   -0.49    0.39
  10   7  12    0.18    0.77
  10   7  13   -0.36    0.64
  10   7  13    0.16    0.79
  10   7  14   17.89    1.52
  10   7  14   14.92    1.61
  10   7  15    9.56    1.05
  10   7  15   10.25    1.20
  10   7  16   10.52    1.03
  10   7  16   12.32    1.22
  10   7  17    4.05    0.58
  10   7  17    4.93    0.76
  10   7  18    9.42    0.90
  10   8  -7   11.84    0.77
  10   8  -7    7.85    0.78
  10   8  -6    0.43    0.29
  10   8  -5   10.04    0.87
  10   8  -2   42.01    2.50
  10   8  -1   27.26    1.71
  10   8  -1   23.48    1.72
  10   8   0    7.29    0.82
  10   8   0    7.08    0.85
  10   8   0    8.70    0.98
  10   8   1   16.29    1.31
  10   8   1   13.86    1.25
  10   8   1   16.20    1.42
  10   8   2   10.39    1.06
  10   8   2   11.82    1.11
  10   8   2   10.63    1.19
  10   8   3   46.27    2.87
  10   8   3   43.44    2.85
  10   8   3   46.35    2.98
  10   8   4    5.68    0.97
  10   8   4    6.03    1.17
  10   8   5   18.58    1.79
  10   8   5   22.51    1.70
  10   8   5   21.54    1.67
  10   8   5   21.17    2.04
  10   8   6    1.10    0.72
  10   8   6    0.80    0.48
  10   8   6    1.79    0.60
  10   8   6    0.28    0.84
  10   8   7    1.42    0.69
  10   8   7    1.46    0.55
  10   8   7    2.59    0.61
  10   8   7    1.68    0.97
  10   8   8    2.54    0.81
  10   8   8    3.99    0.68
  10   8   8    3.58    0.71
  10   8   8    4.68    1.13
  10   8   9   11.67    1.40
  10   8   9   14.19    1.58
  10   8   9   14.36    1.25
  10   8   9   13.28    1.23
  10   8   9   13.71    1.62
  10   8  10   24.06    2.11
  10   8  10   22.77    1.70
  10   8  10   25.95    1.81
  10   8  10   25.85    2.24
  10   8  11   -0.08    0.76
  10   8  11    0.50    0.40
  10   8  11    0.35    0.37
  10   8  11    0.87    0.86
  10   8  12    6.81    1.09
  10   8  12    6.46    0.70
  10   8  12    6.28    0.72
  10   8  12    6.87    1.15
  10   8  13    0.28    0.62
  10   8  13    0.15    0.70
  10   8  14    0.68    0.58
  10   8  14    1.16    0.71
  10   8  15    3.61    0.70
  10   8  15    3.17    0.79
  10   8  16   18.68    1.42
  10   8  16   17.51    1.52
  10   8  17    0.39    0.33
  10   8  17   -0.16    0.47
  10   8  18    1.92    0.45
  10   9  -6    5.70    0.53
  10   9  -5   30.96    1.74
  10   9  -5   25.46    1.72
  10   9  -4   31.44    2.00
  10   9  -3    5.59    0.74
  10   9  -2   33.05    2.03
  10   9  -2   30.36    2.14
  10   9  -1    1.36    0.38
  10   9  -1    0.95    0.37
  10   9  -1    2.16    0.46
  10   9  -1    0.71    0.58
  10   9   0    2.66    0.51
  10   9   0    2.36    0.50
  10   9   0    3.58    0.57
  10   9   0    1.90    0.70
  10   9   1    1.46    0.43
  10   9   1    1.11    0.46
  10   9   1    1.55    0.46
  10   9   1    1.41    0.68
  10   9   2   30.51    2.00
  10   9   2   27.17    1.95
  10   9   2   30.98    1.93
  10   9   2   27.59    2.18
  10   9   2   29.13    1.98
  10   9   3   19.34    1.48
  10   9   3   16.17    1.40
  10   9   3   18.97    1.35
  10   9   3   18.93    1.72
  10   9   3   15.76    1.39
  10   9   4    5.65    0.81
  10   9   4    5.41    1.05
  10   9   5    0.99    0.55
  10   9   6   16.88    1.50
  10   9   6   19.85    1.56
  10   9   6   20.42    1.57
  10   9   7    8.01    1.05
  10   9   7   10.95    1.08
  10   9   7   10.27    1.07
  10   9   8   17.62    1.58
  10   9   8   20.66    1.83
  10   9   8   19.90    1.56
  10   9   8   22.64    1.62
  10   9   9    2.54    0.71
  10   9   9    2.09    0.53
  10   9   9    1.41    0.51
  10   9  10    3.66    0.74
  10   9  10    3.36    0.63
  10   9  10    4.26    0.65
  10   9  11   26.15    1.62
  10   9  11   22.68    1.63
  10   9  12    3.14    0.67
  10   9  12    2.60    0.78
  10   9  12    3.04    0.52
  10   9  12    3.03    0.51
  10   9  13    5.07    0.87
  10   9  13    4.54    0.48
  10   9  14    7.61    0.96
  10   9  15    4.20    0.66
  10   9  16    0.91    0.33
  10   9  16    0.27    0.38
  10   9  17    0.59    0.34
  10  10  -3    0.49    0.30
  10  10  -3    0.78    0.34
  10  10  -2    0.95    0.33
  10  10  -2    0.65    0.37
  10  10  -1    0.43    0.33
  10  10  -1    0.35    0.43
  10  10   0    2.21    0.43
  10  10   0    3.30    0.50
  10  10   0    2.45    0.61
  10  10   1   19.99    1.46
  10  10   1   22.66    1.47
  10  10   1   21.81    1.64
  10  10   2    3.79    0.59
  10  10   2    5.15    0.67
  10  10   2    4.68    0.58
  10  10   2    3.64    0.73
  10  10   3    0.65    0.38
  10  10   3    0.37    0.39
  10  10   3    0.28    0.58
  10  10   4    0.39    0.38
  10  10   4    0.06    0.54
  10  10   5    9.52    1.10
  10  10   6   23.43    1.70
  10  10   6   22.81    1.66
  10  10   6   21.17    1.80
  10  10   7   22.79    1.60
  10  10   7   20.42    1.57
  10  10   7   20.39    1.75
  10  10   8    0.20    0.35
  10  10   8    0.52    0.45
  10  10   8   -0.25    0.57
  10  10   9    2.96    0.55
  10  10   9    2.49    0.54
  10  10   9    1.75    0.70
  10  10  10    4.44    0.80
  10  10  10    3.59    0.58
  10  10  10    3.62    0.59
  10  10  10    2.03    0.64
  10  10  10    4.50    0.87
  10  10  11   13.39    1.27
  10  10  11   13.79    1.01
  10  10  11   12.33    1.27
  10  10  12   11.07    0.87
  10  10  12   10.40    1.15
  10  10  13   11.31    0.82
  10  10  13   14.05    1.23
  10  10  14    0.91    0.49
  10  10  15    0.22    0.41
  10  10  16    5.62    0.64
  10  10  16    5.43    0.64
  10  11  -2    2.92    0.82
  10  11  -1    8.65    0.98
  10  11   0   12.18    1.11
  10  11   0   10.93    0.88
  10  11   1    0.67    0.29
  10  11   1    1.13    0.75
  10  11   1    0.38    0.35
  10  11   2    1.47    0.41
  10  11   2    2.88    0.86
  10  11   2    1.92    0.46
  10  11   3    2.65    0.49
  10  11   3    3.42    0.55
  10  11   4    0.17    0.43
  10  11   4    1.58    0.43
  10  11   4    1.25    0.47
  10  11   5    8.57    0.92
  10  11   6   -0.04    0.37
  10  11   6    0.21    0.42
  10  11   7    5.16    0.65
  10  11   7    3.66    0.66
  10  11   8    0.27    0.37
  10  11   8    0.04    0.43
  10  11   9    5.14    0.64
  10  11   9    5.25    0.73
  10  11  10    0.13    0.31
  10  11  10   -0.37    0.44
  10  11  11    7.73    0.68
  10  11  11    7.03    0.83
  10  11  12   19.18    1.17
  10  11  12   16.91    1.35
  10  11  13   10.61    0.92
  10  11  13    8.66    0.86
  10  11  14    0.37    0.30
  10  11  14    0.08    0.32
  10  12   2    0.70    0.24
  10  12   3   14.36    1.00
  10  12   4    1.08    0.33
  10  12   5    3.65    0.48
  10  12   7    6.58    0.68
  10  12   8    3.96    0.52
  10  12   9    3.57    0.47
  10  12  10   12.26    0.88
  10  12  11    0.99    0.23
  10  13   7    0.35    0.19
  10  13   8   14.02    0.90
 -11   3  -1    8.26    0.63
 -11   3  -2    0.13    0.20
 -11   3  -4    8.25    0.65
  11  -2  -3   19.48    1.17
 -11   2   2    3.29    0.46
  11  -2  -2    2.41    0.34
 -11   2   1    1.76    0.37
 -11   2   1    1.57    0.32
  11  -2  -1    1.32    0.28
 -11   2   0    0.61    0.31
 -11   2   0    0.34    0.28
 -11   2  -1    8.92    0.76
 -11   2  -1    9.70    0.83
 -11   2  -2    0.27    0.29
 -11   2  -2    0.27    0.30
  11  -2   2    0.30    0.25
 -11   2  -3    5.31    0.62
  11  -2   3    5.28    0.57
  11  -2   4    1.75    0.36
 -11   2  -5    5.28    0.59
  11  -2   5    4.96    0.52
 -11   2  -6    1.01    0.32
  11  -2   6    1.32    0.32
 -11   2  -7   19.66    1.35
  11  -2   7   27.34    1.43
 -11   1   5    0.37    0.21
  11  -1  -5    0.43    0.21
 -11   1   4    7.46    0.67
  11  -1  -4    7.49    0.64
 -11   1   3   -0.10    0.31
  11  -1  -3   -0.21    0.24
 -11   1   2    1.16    0.32
  11  -1  -2    0.79    0.30
 -11   1   1   12.33    0.98
  11  -1  -1   12.10    0.92
 -11   1   0   11.10    0.97
 -11   1   0   10.90    0.94
  11  -1   0    8.86    0.77
 -11   1  -1   19.05    1.41
 -11   1  -1   19.40    1.41
  11  -1   1   19.20    1.32
 -11   1  -2    5.66    0.71
 -11   1  -2    6.19    0.78
  11  -1   2    7.14    0.68
 -11   1  -3   13.69    1.14
 -11   1  -3   16.11    1.23
  11  -1   3   15.24    1.12
 -11   1  -4    0.36    0.36
  11  -1   4    0.24    0.31
 -11   1  -5   -0.21    0.40
  11  -1   5    0.07    0.30
 -11   1  -6   26.56    1.67
  11  -1   6   26.45    1.59
 -11   1  -7    1.47    0.35
 -11   1  -7    1.46    0.44
  11  -1   7    2.19    0.41
 -11   1  -8   23.39    1.47
 -11   1  -8   20.47    1.46
 -11   1  -9   19.90    1.34
  11  -1   9   23.47    1.38
 -11   1 -10    0.02    0.25
  11  -1  10    0.02    0.23
 -11   1 -11    2.08    0.32
  11  -1  11    2.50    0.32
 -11   0   5    8.88    0.73
 -11   0   4    0.46    0.33
  11   0  -4    0.44    0.29
 -11   0   3    2.35    0.48
 -11   0   3    2.12    0.36
  11   0  -3    2.86    0.44
 -11   0   2   10.56    0.99
 -11   0   2    8.70    0.83
  11   0  -2   11.04    0.87
 -11   0   1   12.01    1.09
 -11   0   1   10.05    0.95
  11   0  -1   11.17    0.91
 -11   0   0   62.40    3.57
  11   0   0   63.24    3.45
 -11   0  -1   -0.10    0.51
 -11   0  -1    0.05    0.40
  11   0   1    0.44    0.27
  11   0   1    0.21    0.33
 -11   0  -2   39.50    2.64
 -11   0  -2   45.88    2.67
  11   0   2   42.05    2.50
 -11   0  -3   12.44    1.16
 -11   0  -3   15.43    1.25
  11   0   3   12.50    1.05
 -11   0  -4    1.29    0.48
 -11   0  -4    0.73    0.33
  11   0   4    0.96    0.38
 -11   0  -5   17.68    1.41
 -11   0  -5   19.21    1.33
  11   0   5   22.16    1.42
 -11   0  -6    2.40    0.50
 -11   0  -6    2.87    0.51
 -11   0  -6    3.44    0.65
  11   0   6    2.96    0.51
 -11   0  -7   19.11    1.41
 -11   0  -7   20.26    1.53
  11   0   7   22.40    1.44
 -11   0  -8    3.16    0.56
 -11   0  -8    3.68    0.59
  11   0   8    5.06    0.57
 -11   0  -9    0.03    0.36
 -11   0  -9   -0.14    0.32
  11   0   9    0.13    0.29
 -11   0 -10  114.69    6.10
  11   0  10  119.89    6.05
 -11   0 -11    4.70    0.58
  11   0  11    5.30    0.54
 -11   0 -12   34.01    1.93
  11   0  12   32.00    1.84
 -11   0 -13    0.20    0.20
  11   1  -7    0.40    0.18
  11   1  -6    0.19    0.24
 -11  -1   5    0.40    0.28
 -11  -1   4    1.72    0.45
  11   1  -4    2.31    0.43
 -11  -1   3   23.86    1.52
  11   1  -3   23.52    1.41
 -11  -1   2    5.86    0.79
 -11  -1   2    4.69    0.62
  11   1  -2    5.64    0.65
 -11  -1   1   81.26    4.47
 -11  -1   1   75.93    4.32
  11   1  -1   79.76    4.28
 -11  -1   0    0.71    0.52
  11   1   0    0.19    0.36
  11   1   1    4.31    0.57
  11   1   2   85.11    4.42
  11   1   2   77.57    4.41
  11   1   3   39.21    2.29
  11   1   3   35.18    2.26
  11   1   4   21.81    1.50
  11   1   4   20.65    1.48
  11   1   5    1.88    0.51
  11   1   5    2.36    0.50
  11   1   6   41.64    2.28
  11   1   6   32.26    2.18
  11   1   7    0.36    0.36
  11   1   7    0.43    0.34
  11   1   8    0.23    0.34
  11   1   8    1.64    0.39
 -11  -1  -9   90.40    5.35
  11   1   9  109.62    5.33
 -11  -1 -10   24.13    1.67
  11   1  10   24.80    1.57
 -11  -1 -11  104.09    5.30
  11   1  11   95.58    5.14
 -11  -1 -12   14.52    1.06
  11   1  12   11.85    0.89
 -11  -1 -13   12.49    0.91
  11   1  13   10.30    0.77
  11   2  -7   12.08    0.84
  11   2  -6   -0.05    0.26
 -11  -2   5   -0.09    0.27
 -11  -2   4   23.32    1.71
  11   2  -4   29.78    1.72
 -11  -2   3    0.46    0.41
 -11  -2   3   -0.09    0.29
  11   2  -3    0.42    0.33
 -11  -2   2   27.01    2.02
  11   2  -2   32.82    1.95
 -11  -2   1    0.65    0.52
  11   2  -1    0.96    0.38
  11   2   0   17.90    1.31
  11   2   1  114.88    5.83
  11   2   1  105.32    5.94
  11   2   2    5.77    0.83
  11   2   2    6.97    0.70
  11   2   3   77.31    4.36
  11   2   4    5.06    0.80
  11   2   5   96.27    5.30
  11   2   6    4.79    0.76
  11   2   6    5.01    0.63
  11   2   7    8.02    0.93
  11   2   7    9.12    0.83
  11   2   8   20.74    1.66
  11   2   8   25.13    1.57
  11   2   9    5.69    0.80
  11   2   9    8.19    0.75
  11   2  10   33.40    1.94
  11   2  10   34.39    2.03
  11   2  11    1.88    0.45
  11   2  11    1.41    0.47
  11   2  11    1.95    0.39
  11   2  12    4.48    0.57
 -11  -2 -12    5.95    0.71
  11   2  12    4.83    0.53
  11   2  12    5.20    0.60
  11   2  13   17.82    1.16
  11   2  13   19.54    1.25
  11   2  14    1.03    0.28
 -11  -2 -14    0.94    0.35
  11   3  -7    1.34    0.27
  11   3  -6    9.50    0.76
 -11  -3   5   31.26    1.86
 -11  -3   4    0.23    0.35
  11   3  -4    0.14    0.32
 -11  -3   3   35.18    2.19
  11   3  -3   41.81    2.15
 -11  -3   2    0.05    0.42
  11   3  -2    0.16    0.31
  11   3  -2   -0.07    0.34
  11   3  -1    7.10    0.74
  11   3  -1    5.53    0.70
  11   3   0   25.07    1.54
  11   3   0   23.89    1.68
  11   3   1    4.72    0.77
  11   3   1    4.25    0.58
  11   3   1    2.63    0.59
  11   3   2   43.75    2.45
  11   3   2   36.54    2.48
  11   3   2   45.40    2.73
  11   3   3    2.00    0.62
  11   3   3    2.31    0.53
  11   3   4    6.20    0.82
  11   3   4    8.93    1.04
  11   3   5    7.26    0.97
  11   3   5    5.49    0.77
  11   3   6   -0.06    0.53
  11   3   7   38.30    2.59
  11   3   8    1.02    0.61
  11   3   9   19.31    1.59
  11   3  10    0.16    0.34
  11   3  10   -0.11    0.50
  11   3  11    2.87    0.48
  11   3  11    2.92    0.64
  11   3  12   24.66    1.86
  11   3  12   30.66    1.78
  11   3  13    0.95    0.33
  11   3  13    0.46    0.42
 -11  -3 -14   60.10    3.08
  11   3  14   59.85    2.96
  11   3  15    1.85    0.28
 -11  -3 -15    1.67    0.35
  11   4  -6   28.33    1.68
  11   4  -5    0.08    0.29
 -11  -4   4   19.86    1.47
  11   4  -4   21.13    1.48
 -11  -4   3    2.96    0.56
  11   4  -3    2.93    0.50
  11   4  -3    1.92    0.51
  11   4  -2    4.77    0.61
  11   4  -2    4.49    0.66
  11   4  -1   10.70    0.91
  11   4  -1    8.73    0.94
  11   4   0    7.36    0.96
  11   4   0    9.48    0.83
  11   4   0    6.52    0.88
  11   4   1   39.65    2.30
  11   4   1   34.05    2.41
  11   4   1   40.85    2.57
  11   4   2    0.31    0.61
  11   4   2    0.33    0.31
  11   4   2    0.32    0.52
  11   4   3    8.32    1.01
  11   4   3    9.81    1.15
  11   4   4   14.07    1.36
  11   4   4   12.62    1.24
  11   4   5   30.58    2.15
  11   4   5   25.02    1.95
  11   4   6   31.36    2.26
  11   4   6   28.46    2.10
  11   4   7    6.21    0.98
  11   4   7    3.08    0.76
  11   4   8   25.34    1.95
  11   4   8   22.79    1.79
  11   4   9    6.96    1.01
  11   4   9    7.00    0.90
  11   4  10    9.06    1.08
  11   4  10    7.58    0.93
  11   4  11   16.64    1.48
  11   4  11   14.39    1.31
  11   4  12    6.51    0.89
  11   4  12    7.28    0.67
  11   4  12    6.20    0.74
  11   4  13   23.33    1.70
  11   4  14    5.57    0.72
  11   4  15    7.56    0.74
 -11  -4 -15    7.21    0.67
  11   5  -6   -0.13    0.28
  11   5  -5   20.17    1.35
  11   5  -4   12.08    0.93
  11   5  -4    9.92    0.93
 -11  -5   3    1.85    0.46
  11   5  -3    2.36    0.45
  11   5  -3    2.02    0.53
  11   5  -2   45.33    2.53
  11   5  -2   40.03    2.60
  11   5  -1    0.84    0.35
  11   5  -1    0.05    0.54
  11   5   0   25.96    1.69
  11   5   0   24.81    1.87
  11   5   0   27.01    1.94
  11   5   1    0.79    0.62
  11   5   1    0.67    0.34
  11   5   1    0.85    0.54
  11   5   2   77.03    4.32
  11   5   2   78.28    4.60
  11   5   2   90.03    4.73
  11   5   3   84.87    5.04
  11   5   3   94.39    5.17
  11   5   4   31.63    2.27
  11   5   4   27.98    2.16
  11   5   5   69.76    4.06
  11   5   5   62.38    3.94
  11   5   6    4.64    0.95
  11   5   6    6.67    0.98
  11   5   7   89.26    5.05
  11   5   7   82.94    4.95
  11   5   8   -0.22    0.65
  11   5   8   -0.73    0.73
  11   5   9    2.97    0.79
  11   5   9    3.09    0.77
  11   5  10   51.31    3.22
  11   5  10   47.67    3.11
  11   5  11    0.45    0.60
  11   5  11    0.27    0.29
  11   5  11   -0.06    0.61
  11   5  12   40.78    2.67
  11   5  12   39.30    2.55
  11   5  13    0.90    0.54
  11   5  13    0.27    0.45
  11   5  14    4.84    0.74
  11   5  14    4.01    0.61
  11   5  15   30.88    1.97
 -11  -5 -15   30.85    1.82
  11   5  16    0.71    0.32
  11   6  -6    4.92    0.53
  11   6  -5    5.60    0.62
  11   6  -4    1.09    0.44
  11   6  -3   41.90    2.35
  11   6  -3   38.22    2.45
  11   6  -2    2.34    0.44
  11   6  -2    1.34    0.58
  11   6  -1   30.68    2.06
  11   6  -1   36.29    2.06
  11   6  -1   33.56    2.25
  11   6   0    1.79    0.43
  11   6   0    1.77    0.41
  11   6   0    1.88    0.66
  11   6   1    8.05    0.79
  11   6   1    8.87    1.07
  11   6   2   52.51    2.97
  11   6   2   53.75    3.32
  11   6   3    2.69    0.79
  11   6   4  113.28    6.31
  11   6   5    0.28    0.72
  11   6   5    1.29    0.50
  11   6   5    1.06    0.74
  11   6   6   48.74    3.17
  11   6   6   46.56    3.15
  11   6   7    0.22    0.67
  11   6   7    0.87    0.69
  11   6   8   18.68    1.63
  11   6   8   14.44    1.54
  11   6   9   56.35    3.52
  11   6   9   54.33    3.52
  11   6  10    0.47    0.68
  11   6  10    2.37    0.50
  11   6  10    2.64    0.80
  11   6  11  114.76    6.36
  11   6  11  120.55    6.07
  11   6  11  106.88    6.32
  11   6  12    0.12    0.60
  11   6  12   -0.82    0.64
  11   6  13   53.20    3.20
  11   6  13   51.57    3.19
  11   6  14   42.11    2.59
  11   6  14   40.63    2.56
  11   6  15   -0.04    0.40
  11   6  15    0.54    0.41
  11   6  16   37.71    2.21
  11   7  -5    3.63    0.50
  11   7  -4   12.35    1.02
  11   7  -3    9.39    0.91
  11   7  -2   10.13    1.03
  11   7  -1    1.27    0.54
  11   7   0   11.17    0.99
  11   7   0   12.44    1.19
  11   7   1    2.59    0.64
  11   7   1    1.77    0.46
  11   7   1    2.03    0.66
  11   7   2    6.56    0.91
  11   7   2    6.30    0.73
  11   7   2    6.08    0.74
  11   7   2    6.17    0.95
  11   7   3  151.96    7.80
  11   7   3  150.76    7.85
  11   7   3  150.47    8.06
  11   7   3  145.17    7.96
  11   7   4    0.74    0.63
  11   7   4    0.27    0.67
  11   7   5    1.40    0.67
  11   7   5   -0.05    0.42
  11   7   5    1.11    0.47
  11   7   5    1.34    0.72
  11   7   6   11.28    1.30
  11   7   6   14.95    1.18
  11   7   6   13.10    1.17
  11   7   6   12.40    1.39
  11   7   7    1.81    0.50
  11   7   7    2.14    0.55
  11   7   7    1.60    0.77
  11   7   8   33.94    2.09
  11   7   8   32.15    2.11
  11   7   8   29.62    2.38
  11   7   9    0.50    0.37
  11   7   9    0.28    0.67
  11   7  10   43.24    2.71
  11   7  10   50.96    3.11
  11   7  11    2.94    0.48
  11   7  11    1.67    0.71
  11   7  12    0.59    0.56
  11   7  13   22.69    1.73
  11   7  14    3.29    0.68
  11   7  15   36.65    2.26
  11   8  -4    1.74    0.30
  11   8  -4    0.77    0.34
  11   8  -3   39.99    2.12
  11   8  -3   32.93    2.16
  11   8  -2    3.60    0.46
  11   8  -2    1.82    0.53
  11   8  -1   32.93    1.91
  11   8  -1   29.65    2.05
  11   8   0    7.95    0.93
  11   8   1    4.21    0.58
  11   8   1    5.84    0.86
  11   8   2   83.13    4.41
  11   8   2   75.84    4.45
  11   8   2   85.48    4.69
  11   8   2   84.20    4.55
  11   8   3    0.53    0.51
  11   8   3    0.18    0.34
  11   8   3    0.04    0.41
  11   8   3   -0.06    0.62
  11   8   4   27.28    1.80
  11   8   4   24.19    1.98
  11   8   4   25.76    1.86
  11   8   5   36.98    2.60
  11   8   5   38.02    2.46
  11   8   6    3.48    0.69
  11   8   6    2.95    0.55
  11   8   6    2.72    0.55
  11   8   6    1.47    0.75
  11   8   7   43.74    2.87
  11   8   7   49.33    2.76
  11   8   7   43.48    2.76
  11   8   7   47.93    3.06
  11   8   8    0.49    0.53
  11   8   8    0.14    0.34
  11   8   8    0.58    0.43
  11   8   8    0.74    0.73
  11   8   9   39.53    2.65
  11   8   9   42.35    2.48
  11   8   9   42.45    2.54
  11   8   9   41.57    2.82
  11   8  10   13.17    1.26
  11   8  10   13.82    1.06
  11   8  10   14.25    1.12
  11   8  10   13.50    1.40
  11   8  11    1.57    0.56
  11   8  11    0.54    0.61
  11   8  12   11.93    1.09
  11   8  12   11.09    1.16
  11   8  13    2.20    0.54
  11   8  13    2.57    0.64
  11   8  14    3.23    0.55
  11   8  14    3.80    0.65
  11   8  15    2.75    0.48
  11   8  15    4.80    0.58
  11   9  -2    7.18    0.61
  11   9  -1   23.31    1.43
  11   9   0    3.41    0.44
  11   9   1    8.57    0.72
  11   9   2   -0.28    0.29
  11   9   2   -0.16    0.33
  11   9   3   20.76    1.37
  11   9   3   17.79    1.36
  11   9   4   17.85    1.26
  11   9   4   16.14    1.26
  11   9   4   16.02    1.25
  11   9   5    9.85    0.94
  11   9   6   80.09    4.07
  11   9   6   73.46    4.07
  11   9   6   67.21    4.02
  11   9   7    1.33    0.49
  11   9   7    2.19    0.49
  11   9   7    2.45    0.53
  11   9   8   35.36    2.32
  11   9   8   41.65    2.32
  11   9   8   37.09    2.32
  11   9   9    4.68    0.65
  11   9   9    4.97    0.59
  11   9   9    4.29    0.60
  11   9   9    4.61    0.85
  11   9  10    9.76    0.92
  11   9  10    8.98    0.79
  11   9  10    8.76    0.84
  11   9  10   10.27    1.09
  11   9  11   21.86    1.56
  11   9  11   25.20    1.80
  11   9  12    1.92    0.46
  11   9  12    3.05    0.65
  11   9  13    8.92    0.80
  11   9  13   10.59    0.99
  11   9  14    0.07    0.25
  11   9  14   -0.30    0.39
  11   9  15    3.07    0.46
  11  10   0   21.75    1.41
  11  10   1    9.74    0.85
  11  10   2    1.50    0.32
  11  10   2    1.45    0.44
  11  10   3    2.97    0.44
  11  10   3    1.96    0.53
  11  10   4    4.21    0.54
  11  10   4    2.68    0.62
  11  10   5   39.02    2.42
  11  10   6    2.00    0.42
  11  10   6    1.06    0.39
  11  10   6    1.61    0.53
  11  10   7    9.99    0.85
  11  10   7    9.17    0.84
  11  10   7    9.38    0.98
  11  10   8    9.31    0.78
  11  10   8    7.64    0.90
  11  10   9    2.88    0.45
  11  10   9    1.79    0.58
  11  10  10   41.37    2.30
  11  10  10   40.79    2.51
  11  10  11   -0.11    0.42
  11  10  12   18.54    1.35
  11  10  13   -0.11    0.31
  11  11   3    2.40    0.32
  11  11   4   22.23    1.26
  11  11   4   17.35    1.25
  11  11   5    1.45    0.36
  11  11   6    5.50    0.60
  11  11   7    7.31    0.67
  11  11   7    7.43    0.71
  11  11   8   -0.09    0.24
  11  11   8    0.21    0.30
  11  11   9   40.76    2.09
  11  11   9   32.72    2.14
  11  11  10    0.18    0.20
  11  11  10    0.54    0.29
 -12   0  -2   34.00    1.94
 -12   0  -3   47.62    2.62
 -12   0  -4    0.02    0.27
 -12   0  -6    1.57    0.28
 -12  -1   1    8.13    0.67
 -12  -1   0   22.17    1.34
 -12  -1   0   18.60    1.22
 -12  -1  -1    2.91    0.45
 -12  -1  -2   53.73    3.12
 -12  -1  -2   59.97    3.13
 -12  -1  -3    0.96    0.36
 -12  -1  -3    1.90    0.41
 -12  -1  -4   36.34    2.38
 -12  -1  -4   51.96    2.53
 -12  -1  -5    5.39    0.58
 -12  -1  -6    2.11    0.42
 -12  -1  -7    1.36    0.37
 -12  -2   2    5.43    0.54
 -12  -2   1   19.25    1.28
 -12  -2   0    9.88    0.85
 -12  -2   0    9.04    0.75
 -12  -2  -1   21.12    1.45
 -12  -2  -1   21.31    1.41
 -12  -2  -2   14.08    1.09
 -12  -2  -3   34.43    2.26
 -12  -2  -3   41.07    2.29
 -12  -2  -4    2.02    0.48
 -12  -2  -5    0.04    0.34
 -12  -2  -5    0.35    0.23
 -12  -2  -6   29.29    1.65
 -12  -2  -6   31.77    1.85
  12   2   6   27.01    1.59
 -12  -2  -7    0.95    0.33
 -12  -2  -7    1.18    0.33
 -12  -2  -8    4.50    0.50
 -12  -2  -8    3.51    0.51
 -12  -2  -9    3.03    0.44
 -12  -2  -9    1.54    0.35
 -12  -2 -10    8.13    0.71
 -12  -3   2    7.86    0.68
 -12  -3   1    1.35    0.37
  12   3  -1    1.43    0.26
 -12  -3   0   28.24    1.75
 -12  -3   0   26.02    1.63
 -12  -3  -1    1.74    0.45
 -12  -3  -2   30.31    1.96
  12   3   4    1.13    0.39
  12   3   5   38.83    2.29
  12   3   6    0.64    0.37
  12   3   7   18.59    1.27
  12   3   8    5.16    0.57
  12   3   9    0.22    0.27
 -12  -3  -9    0.34    0.30
 -12  -3 -11    1.03    0.35
 -12  -3 -12   23.29    1.43
  12   4  -2    0.14    0.17
 -12  -4   1   17.08    1.30
  12   4  -1   21.51    1.22
 -12  -4   0    2.23    0.45
  12   4   3    1.51    0.45
  12   4   4   20.22    1.44
  12   4   5    1.53    0.47
  12   4   6   39.61    2.41
  12   4   7    5.00    0.64
  12   4   8    7.13    0.77
  12   4   9    4.62    0.60
  12   4  10    0.62    0.35
  12   4  11   32.69    1.93
 -12  -4 -12    2.31    0.41
 -12  -5   1    0.20    0.25
 -12  -5   0    3.69    0.55
  12   5   0    4.19    0.50
  12   5   1   13.83    1.02
  12   5   2    1.66    0.37
  12   5   3   19.88    1.42
  12   5   3   23.86    1.58
  12   5   4    3.65    0.65
  12   5   4    3.83    0.57
  12   5   5   25.34    1.74
  12   5   5   31.79    1.93
  12   5   6    2.03    0.55
  12   5   6    0.86    0.41
  12   5   7    2.19    0.55
  12   5   7    0.95    0.38
  12   5   8    8.89    0.82
  12   5   8   12.76    1.04
  12   5   9    1.51    0.45
  12   5   9    0.55    0.30
  12   5  10   20.32    1.43
  12   5  11   -0.20    0.36
  12   5  12   16.79    1.18
  12   6  -1    6.56    0.62
 -12  -6   0    2.66    0.45
  12   6   0    4.74    0.55
  12   6   1    0.72    0.35
  12   6   2   26.32    1.70
  12   6   3    0.72    0.46
  12   6   3    0.25    0.41
  12   6   4   71.20    3.83
  12   6   4   65.65    3.81
  12   6   4   72.35    3.91
  12   6   5    1.63    0.49
  12   6   5    1.40    0.51
  12   6   6    0.26    0.47
  12   6   6    0.73    0.33
  12   6   6    0.42    0.41
  12   6   7   36.04    2.17
  12   6   7   33.10    2.17
  12   6   7   38.84    2.30
  12   6   8   -0.21    0.45
  12   6   8    0.51    0.39
  12   6   9   12.34    1.08
  12   6   9   11.56    1.00
  12   6  10    1.40    0.46
  12   6  10    0.57    0.36
  12   6  11   32.93    1.76
  12   6  11   21.97    1.55
  12   6  12    3.43    0.52
  12   6  13    0.57    0.30
  12   7   0    0.18    0.27
  12   7   1   10.21    0.90
  12   7   2   -0.10    0.36
  12   7   3   36.00    2.22
  12   7   4    2.35    0.54
  12   7   5    0.71    0.43
  12   7   6   20.60    1.50
  12   7   7    0.32    0.41
  12   7   8   12.22    1.06
  12   7   9    0.95    0.44
  12   7  10    2.19    0.49
  12   7  11    3.91    0.54
  12   8   1    0.98    0.34
  12   8   2    0.27    0.35
  12   8   3   15.80    1.17
  12   8   4    1.35    0.44
  12   8   5   16.12    1.22
  12   8   5   15.24    1.14
  12   8   6    4.70    0.59
  12   8   6    4.39    0.65
  12   8   7   23.56    1.66
  12   8   7   26.28    1.63
  12   8   8    0.73    0.37
  12   8   8    1.08    0.43
  12   8   9    0.18    0.31
  12   8   9    0.20    0.35
  12   8  10    8.90    0.85
  12   8  10    9.66    0.81
  12   8  11    9.75    0.83
  12   8  11    9.27    0.78
  12   9   3    0.51    0.29
  12   9   4   23.54    1.52
  12   9   5    1.52    0.41
  12   9   6   20.81    1.40
  12   9   7    0.38    0.23
  12   9   7    0.56    0.34
  12   9   8    0.17    0.31
  12   9   9   12.33    0.97
  12   9  10    1.50    0.37
   0   0   0    0.00    0.00



TITL jmwjt3_Cu in P-1
REM P-1 (#2 in standard setting)
CELL 1.54184  10.121344  12.306836  18.929722  75.5802  77.1348  71.3951
ZERR    4.00   0.000295   0.000342   0.000565   0.0025   0.0025   0.0026
LATT  1
SFAC C H N O Se
UNIT 96.00 100.00 12.00 12.00 4.00
TREF
HKLF 4
END
_computing_structure_solution     'SHELXT 2018/2 (Sheldrick, 2018)'
_computing_structure_solution     'SHELXT 2018/2 (Sheldrick, 2018)'
;
_shelx_hkl_checksum                91876
_olex2_submission_special_instructions  'No special instructions were received'
