data_tf-10
_audit_creation_date               2021-03-18
_audit_creation_method
;
Olex2 1.3
(compiled 2020.11.12 svn.r5f609507 for OlexSys, GUI svn.r6272)
;
_shelx_SHELXL_version_number       '2018/3'
_audit_contact_author_address      ?
_audit_contact_author_email        ?
_audit_contact_author_name         ''
_audit_contact_author_phone        ?
_publ_contact_author_id_orcid      ?
_publ_section_references
;
Dolomanov, O.V., Bourhis, L.J., Gildea, R.J, Howard, J.A.K. & Puschmann, H.
 (2009), J. Appl. Cryst. 42, 339-341.

Sheldrick, G.M. (2015). Acta Cryst. A71, 3-8.

Sheldrick, G.M. (2015). Acta Cryst. C71, 3-8.
;
_chemical_name_common              ?
_chemical_name_systematic          ?
_chemical_formula_moiety           'C15 H13 N O2 Se'
_chemical_formula_sum              'C15 H13 N O2 Se'
_chemical_formula_weight           318.22
_chemical_melting_point            ?
loop_
  _atom_type_symbol
  _atom_type_description
  _atom_type_scat_dispersion_real
  _atom_type_scat_dispersion_imag
  _atom_type_scat_source
 'C' 'C' 0.0181 0.0091 'International Tables Vol C Tables 4.2.6.8 and 6.1.1.4'
 'H' 'H' 0.0000 0.0000 'International Tables Vol C Tables 4.2.6.8 and 6.1.1.4'
 'N' 'N' 0.0311 0.0180 'International Tables Vol C Tables 4.2.6.8 and 6.1.1.4'
 'O' 'O' 0.0492 0.0322 'International Tables Vol C Tables 4.2.6.8 and 6.1.1.4'
 'Se' 'Se' -0.7943 1.1372
 'International Tables Vol C Tables 4.2.6.8 and 6.1.1.4'

_shelx_space_group_comment
;
The symmetry employed for this shelxl refinement is uniquely defined
by the following loop, which should always be used as a source of
symmetry information in preference to the above space-group names.
They are only intended as comments.
;
_space_group_crystal_system        'monoclinic'
_space_group_IT_number             14
_space_group_name_H-M_alt          'P 1 21/c 1'
_space_group_name_Hall             '-P 2ybc'
loop_
  _space_group_symop_operation_xyz
 'x, y, z'
 '-x, y+1/2, -z+1/2'
 '-x, -y, -z'
 'x, -y-1/2, z-1/2'

_cell_length_a                     18.5506(5)
_cell_length_b                     6.1578(2)
_cell_length_c                     12.3151(3)
_cell_angle_alpha                  90
_cell_angle_beta                   101.778(3)
_cell_angle_gamma                  90
_cell_volume                       1377.15(7)
_cell_formula_units_Z              4
_cell_measurement_reflns_used      ?
_cell_measurement_temperature      293(2)
_cell_measurement_theta_max        ?
_cell_measurement_theta_min        ?
_shelx_estimated_absorpt_T_max     ?
_shelx_estimated_absorpt_T_min     ?
_exptl_absorpt_coefficient_mu      3.671
_exptl_absorpt_correction_T_max    ?
_exptl_absorpt_correction_T_min    ?
_exptl_absorpt_correction_type     ?
_exptl_absorpt_process_details     ?
_exptl_absorpt_special_details     ?
_exptl_crystal_colour              ?
_exptl_crystal_density_diffrn      1.535
_exptl_crystal_density_meas        ?
_exptl_crystal_density_method      ?
_exptl_crystal_description         ?
_exptl_crystal_F_000               640
_exptl_crystal_size_max            0.205
_exptl_crystal_size_mid            0.115
_exptl_crystal_size_min            0.03
_exptl_transmission_factor_max     ?
_exptl_transmission_factor_min     ?
_diffrn_reflns_av_R_equivalents    0.0445
_diffrn_reflns_av_unetI/netI       0.0451
_diffrn_reflns_Laue_measured_fraction_full  0.993
_diffrn_reflns_Laue_measured_fraction_max  0.976
_diffrn_reflns_limit_h_max         23
_diffrn_reflns_limit_h_min         -23
_diffrn_reflns_limit_k_max         7
_diffrn_reflns_limit_k_min         -7
_diffrn_reflns_limit_l_max         15
_diffrn_reflns_limit_l_min         -15
_diffrn_reflns_number              9007
_diffrn_reflns_point_group_measured_fraction_full  0.993
_diffrn_reflns_point_group_measured_fraction_max  0.976
_diffrn_reflns_theta_full          67.684
_diffrn_reflns_theta_max           76.847
_diffrn_reflns_theta_min           2.433
_diffrn_ambient_temperature        293(2)
_diffrn_detector_area_resol_mean   ?
_diffrn_measured_fraction_theta_full  0.993
_diffrn_measured_fraction_theta_max  0.976
_diffrn_measurement_device_type    ?
_diffrn_measurement_method         ?
_diffrn_radiation_type             CuK\a
_diffrn_radiation_wavelength       1.54184
_diffrn_source                     ?
_reflns_Friedel_coverage           0.000
_reflns_Friedel_fraction_full      .
_reflns_Friedel_fraction_max       .
_reflns_number_gt                  2580
_reflns_number_total               2836
_reflns_special_details
;
 Reflections were merged by SHELXL according to the crystal
 class for the calculation of statistics and refinement.
 
 _reflns_Friedel_fraction is defined as the number of unique
 Friedel pairs measured divided by the number that would be
 possible theoretically, ignoring centric projections and
 systematic absences.
;
_reflns_threshold_expression       'I > 2\s(I)'
_computing_cell_refinement         ?
_computing_data_collection         ?
_computing_data_reduction          ?
_computing_molecular_graphics      'Olex2 1.3 (Dolomanov et al., 2009)'
_computing_publication_material    'Olex2 1.3 (Dolomanov et al., 2009)'
_computing_structure_refinement    'ShelXL (Sheldrick, 2015)'
_computing_structure_solution      'ShelXT (Sheldrick, 2015)'
_refine_diff_density_max           1.658
_refine_diff_density_min           -0.680
_refine_diff_density_rms           0.155
_refine_ls_extinction_coef         0.0024(4)
_refine_ls_extinction_expression  
 'Fc^*^=kFc[1+0.001xFc^2^\l^3^/sin(2\q)]^-1/4^'
_refine_ls_extinction_method       'SHELXL-2018/3 (Sheldrick 2018)'
_refine_ls_goodness_of_fit_ref     1.111
_refine_ls_hydrogen_treatment      constr
_refine_ls_matrix_type             full
_refine_ls_number_parameters       194
_refine_ls_number_reflns           2836
_refine_ls_number_restraints       3
_refine_ls_R_factor_all            0.0593
_refine_ls_R_factor_gt             0.0564
_refine_ls_restrained_S_all        1.111
_refine_ls_shift/su_max            0.001
_refine_ls_shift/su_mean           0.000
_refine_ls_structure_factor_coef   Fsqd
_refine_ls_weighting_details      
 'w=1/[\s^2^(Fo^2^)+(0.1000P)^2^+2.1492P] where P=(Fo^2^+2Fc^2^)/3'
_refine_ls_weighting_scheme        calc
_refine_ls_wR_factor_gt            0.1582
_refine_ls_wR_factor_ref           0.1617
_refine_special_details            ?
_olex2_refinement_description
;
1. Restrained distances
 O2-C14A \\sim O2-C14B
 with sigma of 0.02
 C15A-C14A \\sim C15B-C14B
 with sigma of 0.02
 O2-C15A \\sim O2-C15B
 with sigma of 0.04
2. Others
 Sof(C14B)=Sof(H14C)=Sof(H14D)=Sof(C15B)=Sof(H15D)=Sof(H15E)=Sof(H15F)=1-FVAR(1)
 Sof(C15A)=Sof(H15A)=Sof(H15B)=Sof(H15C)=Sof(C14A)=Sof(H14A)=Sof(H14B)=FVAR(1)
3.a Secondary CH2 refined with riding coordinates:
 C14A(H14A,H14B), C14B(H14C,H14D)
3.b Aromatic/amide H refined with riding coordinates:
 C6(H6), C5(H5), C4(H4), C3(H3), C12(H12), C13(H13), C9(H9), C10(H10)
3.c Idealised Me refined as rotating group:
 C15A(H15A,H15B,H15C), C15B(H15D,H15E,H15F)
;
_atom_sites_solution_hydrogens     geom
_atom_sites_solution_primary       dual
_atom_sites_solution_secondary     ?
loop_
  _atom_site_label
  _atom_site_type_symbol
  _atom_site_fract_x
  _atom_site_fract_y
  _atom_site_fract_z
  _atom_site_U_iso_or_equiv
  _atom_site_adp_type
  _atom_site_occupancy
  _atom_site_site_symmetry_order
  _atom_site_calc_flag
  _atom_site_refinement_flags_posn
  _atom_site_refinement_flags_adp
  _atom_site_refinement_flags_occupancy
  _atom_site_disorder_assembly
  _atom_site_disorder_group
 Se1 Se 0.68554(2) 0.32202(6) 0.88087(3) 0.0246(2) Uani 1 1 d . . . . .
 O1 O 0.66311(18) 0.3804(5) 0.5553(2) 0.0351(7) Uani 1 1 d . . . . .
 N1 N 0.69858(17) 0.4359(5) 0.7427(2) 0.0238(6) Uani 1 1 d . . . . .
 O2 O 0.8728(2) 1.1839(5) 0.7673(3) 0.0454(9) Uani 1 1 d D . . . .
 C6 C 0.5964(2) -0.0770(6) 0.8356(3) 0.0269(8) Uani 1 1 d . . . . .
 H6 H 0.600121 -0.099155 0.911267 0.032 Uiso 1 1 calc R . . . .
 C7 C 0.6630(2) 0.3269(6) 0.6517(3) 0.0254(8) Uani 1 1 d . . . . .
 C5 C 0.5580(2) -0.2207(7) 0.7585(4) 0.0311(8) Uani 1 1 d . . . . .
 H5 H 0.535625 -0.341223 0.783039 0.037 Uiso 1 1 calc R . . . .
 C1 C 0.6295(2) 0.1021(6) 0.7965(3) 0.0233(7) Uani 1 1 d . . . . .
 C4 C 0.5520(2) -0.1886(6) 0.6451(4) 0.0319(9) Uani 1 1 d . . . . .
 H4 H 0.525909 -0.287273 0.594779 0.038 Uiso 1 1 calc R . . . .
 C2 C 0.6239(2) 0.1359(6) 0.6827(3) 0.0240(7) Uani 1 1 d . . . . .
 C8 C 0.7430(2) 0.6262(7) 0.7439(3) 0.0268(8) Uani 1 1 d . . . . .
 C3 C 0.5850(2) -0.0099(7) 0.6071(3) 0.0310(8) Uani 1 1 d . . . . .
 H3 H 0.580919 0.012156 0.531388 0.037 Uiso 1 1 calc R . . . .
 C11 C 0.8296(2) 1.0019(8) 0.7591(4) 0.0401(10) Uani 1 1 d . . . . .
 C12 C 0.8192(3) 0.9003(9) 0.8527(5) 0.0521(13) Uani 1 1 d . . . . .
 H12 H 0.841241 0.954617 0.922034 0.063 Uiso 1 1 calc R . . . .
 C13 C 0.7757(3) 0.7153(9) 0.8446(4) 0.0482(13) Uani 1 1 d . . . . .
 H13 H 0.768296 0.649280 0.909398 0.058 Uiso 1 1 calc R . . . .
 C9 C 0.7523(3) 0.7340(11) 0.6519(4) 0.0537(14) Uani 1 1 d . . . . .
 H9 H 0.728938 0.683308 0.582471 0.064 Uiso 1 1 calc R . . . .
 C10 C 0.7961(3) 0.9193(10) 0.6592(4) 0.0560(15) Uani 1 1 d . . . . .
 H10 H 0.802547 0.987679 0.594475 0.067 Uiso 1 1 calc R . . . .
 C15A C 0.9354(4) 1.4736(12) 0.7034(8) 0.045(2) Uani 0.606(8) 1 d D . P A 1
 H15A H 0.933690 1.570426 0.641848 0.068 Uiso 0.606(8) 1 calc GR . P A 1
 H15B H 0.984493 1.418651 0.726986 0.068 Uiso 0.606(8) 1 calc GR . P A 1
 H15C H 0.921182 1.550521 0.763562 0.068 Uiso 0.606(8) 1 calc GR . P A 1
 C14A C 0.8838(4) 1.2896(13) 0.6691(8) 0.045(2) Uani 0.606(8) 1 d D . P A 1
 H14A H 0.837228 1.342875 0.626757 0.054 Uiso 0.606(8) 1 calc R . P A 1
 H14B H 0.904419 1.188805 0.623111 0.054 Uiso 0.606(8) 1 calc R . P A 1
 C14B C 0.9074(8) 1.279(2) 0.8722(12) 0.053(4) Uani 0.394(8) 1 d D . P A 2
 H14C H 0.939407 1.173256 0.916237 0.063 Uiso 0.394(8) 1 calc R . P A 2
 H14D H 0.869981 1.321222 0.912870 0.063 Uiso 0.394(8) 1 calc R . P A 2
 C15B C 0.9508(9) 1.472(2) 0.8531(16) 0.063(4) Uani 0.394(8) 1 d D . P A 2
 H15D H 0.980453 1.437276 0.800078 0.095 Uiso 0.394(8) 1 calc GR . P A 2
 H15E H 0.982141 1.515347 0.921735 0.095 Uiso 0.394(8) 1 calc GR . P A 2
 H15F H 0.918036 1.589202 0.825183 0.095 Uiso 0.394(8) 1 calc GR . P A 2

loop_
  _atom_site_aniso_label
  _atom_site_aniso_U_11
  _atom_site_aniso_U_22
  _atom_site_aniso_U_33
  _atom_site_aniso_U_23
  _atom_site_aniso_U_13
  _atom_site_aniso_U_12
 Se1 0.0363(3) 0.0240(3) 0.0133(3) 0.00041(12) 0.00446(17) -0.00193(14)
 O1 0.0586(19) 0.0303(14) 0.0187(13) -0.0004(11) 0.0132(12) -0.0047(14)
 N1 0.0323(15) 0.0244(15) 0.0150(13) 0.0024(11) 0.0057(11) 0.0004(13)
 O2 0.0448(19) 0.0363(19) 0.055(2) 0.0022(14) 0.0104(16) -0.0076(13)
 C6 0.0308(17) 0.0270(19) 0.0241(17) 0.0032(14) 0.0083(14) 0.0012(15)
 C7 0.0339(19) 0.028(2) 0.0157(17) -0.0014(12) 0.0084(14) 0.0006(14)
 C5 0.0276(18) 0.0248(18) 0.041(2) 0.0038(17) 0.0079(16) 0.0008(16)
 C1 0.0293(17) 0.0249(18) 0.0167(16) -0.0016(13) 0.0072(13) 0.0038(14)
 C4 0.033(2) 0.030(2) 0.031(2) -0.0096(15) 0.0045(16) -0.0042(16)
 C2 0.0283(17) 0.0262(17) 0.0181(17) -0.0009(14) 0.0058(13) 0.0042(15)
 C8 0.0306(18) 0.0240(17) 0.0271(19) 0.0042(15) 0.0085(14) -0.0015(15)
 C3 0.041(2) 0.030(2) 0.0215(17) -0.0063(15) 0.0064(15) -0.0030(17)
 C11 0.031(2) 0.031(2) 0.056(3) 0.003(2) 0.0049(18) 0.0016(17)
 C12 0.069(3) 0.043(3) 0.049(3) -0.019(2) 0.023(3) -0.022(3)
 C13 0.069(3) 0.044(3) 0.038(2) -0.013(2) 0.025(2) -0.026(3)
 C9 0.061(3) 0.065(3) 0.028(2) 0.010(2) -0.005(2) -0.031(3)
 C10 0.063(3) 0.062(3) 0.039(3) 0.021(2) 0.000(2) -0.024(3)
 C15A 0.035(4) 0.028(4) 0.076(6) 0.002(4) 0.019(4) -0.010(3)
 C14A 0.032(4) 0.039(4) 0.063(5) 0.018(4) 0.007(3) -0.003(3)
 C14B 0.042(7) 0.049(8) 0.066(9) -0.008(7) 0.009(6) -0.005(6)
 C15B 0.056(8) 0.032(7) 0.102(13) -0.003(7) 0.015(8) -0.006(6)

_geom_special_details
;
 All esds (except the esd in the dihedral angle between two l.s. planes)
 are estimated using the full covariance matrix.  The cell esds are taken
 into account individually in the estimation of esds in distances, angles
 and torsion angles; correlations between esds in cell parameters are only
 used when they are defined by crystal symmetry.  An approximate (isotropic)
 treatment of cell esds is used for estimating esds involving l.s. planes.
;
loop_
  _geom_bond_atom_site_label_1
  _geom_bond_atom_site_label_2
  _geom_bond_distance
  _geom_bond_site_symmetry_2
  _geom_bond_publ_flag
 Se1 N1 1.901(3) . ?
 Se1 C1 1.885(4) . ?
 O1 C7 1.232(5) . ?
 N1 C7 1.357(5) . ?
 N1 C8 1.431(5) . ?
 O2 C11 1.369(6) . ?
 O2 C14A 1.425(9) . ?
 O2 C14B 1.444(13) . ?
 C6 C5 1.385(6) . ?
 C6 C1 1.395(5) . ?
 C7 C2 1.472(5) . ?
 C5 C4 1.393(6) . ?
 C1 C2 1.399(5) . ?
 C4 C3 1.386(6) . ?
 C2 C3 1.386(5) . ?
 C8 C13 1.379(6) . ?
 C8 C9 1.354(6) . ?
 C11 C12 1.360(7) . ?
 C11 C10 1.359(7) . ?
 C12 C13 1.388(7) . ?
 C9 C10 1.393(8) . ?
 C15A C14A 1.488(10) . ?
 C14B C15B 1.482(15) . ?

loop_
  _geom_angle_atom_site_label_1
  _geom_angle_atom_site_label_2
  _geom_angle_atom_site_label_3
  _geom_angle
  _geom_angle_site_symmetry_1
  _geom_angle_site_symmetry_3
  _geom_angle_publ_flag
 C1 Se1 N1 85.86(14) . . ?
 C7 N1 Se1 115.3(2) . . ?
 C7 N1 C8 126.6(3) . . ?
 C8 N1 Se1 118.1(2) . . ?
 C11 O2 C14A 119.6(5) . . ?
 C11 O2 C14B 123.0(7) . . ?
 C5 C6 C1 118.0(3) . . ?
 O1 C7 N1 124.6(4) . . ?
 O1 C7 C2 124.2(4) . . ?
 N1 C7 C2 111.3(3) . . ?
 C6 C5 C4 121.4(4) . . ?
 C6 C1 Se1 127.5(3) . . ?
 C6 C1 C2 121.0(3) . . ?
 C2 C1 Se1 111.4(3) . . ?
 C3 C4 C5 120.1(4) . . ?
 C1 C2 C7 116.0(3) . . ?
 C3 C2 C7 124.0(3) . . ?
 C3 C2 C1 119.9(4) . . ?
 C13 C8 N1 118.8(4) . . ?
 C9 C8 N1 124.3(4) . . ?
 C9 C8 C13 116.7(4) . . ?
 C4 C3 C2 119.5(4) . . ?
 C12 C11 O2 119.7(5) . . ?
 C10 C11 O2 121.7(5) . . ?
 C10 C11 C12 118.6(5) . . ?
 C11 C12 C13 119.9(5) . . ?
 C8 C13 C12 122.3(5) . . ?
 C8 C9 C10 121.3(5) . . ?
 C11 C10 C9 121.2(5) . . ?
 O2 C14A C15A 107.6(7) . . ?
 O2 C14B C15B 109.9(12) . . ?

_shelx_res_file
;
TITL tf-10_a.res in P2(1)/c
    tf-10.res
    created by SHELXL-2018/3 at 16:31:37 on 18-Oct-2019
REM Old TITL tf-10 in P2(1)/c
REM SHELXT solution in P2(1)/c: R1 0.128, Rweak 0.021, Alpha 0.029
REM <I/s> 0.456 for 272 systematic absences, Orientation as input
REM Formula found by SHELXT: C15 N2 O Se
CELL 1.54184 18.5506 6.1578 12.3151 90 101.778 90
ZERR 4 0.0005 0.0002 0.0003 0 0.003 0
LATT 1
SYMM -X,0.5+Y,0.5-Z
SFAC C H N O Se
UNIT 60 52 4 8 4
SADI O2 C14A O2 C14B
SADI C15A C14A C15B C14B
SADI 0.04 O2 C15A O2 C15B

L.S. 4
PLAN  20
BOND
list 4
fmap 2
ACTA
REM <olex2.extras>
REM <HklSrc "%./tf-10.hkl">
REM </olex2.extras>

WGHT    0.100000    2.149200
EXTI    0.002385
FVAR       0.47533   0.60594
SE1   5    0.685539    0.322023    0.880867    11.00000    0.03632    0.02404 =
         0.01330    0.00041    0.00446   -0.00193
O1    4    0.663106    0.380383    0.555338    11.00000    0.05864    0.03028 =
         0.01872   -0.00039    0.01321   -0.00474
N1    3    0.698577    0.435876    0.742717    11.00000    0.03229    0.02442 =
         0.01498    0.00242    0.00574    0.00038
O2    4    0.872799    1.183862    0.767340    11.00000    0.04480    0.03635 =
         0.05514    0.00224    0.01035   -0.00763
C6    1    0.596448   -0.076968    0.835637    11.00000    0.03078    0.02702 =
         0.02409    0.00322    0.00825    0.00116
AFIX  43
H6    2    0.600121   -0.099155    0.911267    11.00000   -1.20000
AFIX   0
C7    1    0.662981    0.326944    0.651680    11.00000    0.03392    0.02797 =
         0.01572   -0.00137    0.00843    0.00061
C5    1    0.557973   -0.220682    0.758541    11.00000    0.02764    0.02478 =
         0.04127    0.00383    0.00790    0.00081
AFIX  43
H5    2    0.535625   -0.341223    0.783039    11.00000   -1.20000
AFIX   0
C1    1    0.629546    0.102148    0.796457    11.00000    0.02932    0.02494 =
         0.01671   -0.00156    0.00716    0.00380
C4    1    0.552015   -0.188619    0.645085    11.00000    0.03333    0.03021 =
         0.03140   -0.00964    0.00448   -0.00421
AFIX  43
H4    2    0.525909   -0.287273    0.594779    11.00000   -1.20000
AFIX   0
C2    1    0.623943    0.135911    0.682729    11.00000    0.02831    0.02620 =
         0.01808   -0.00091    0.00577    0.00417
C8    1    0.743022    0.626150    0.743916    11.00000    0.03060    0.02400 =
         0.02705    0.00419    0.00848   -0.00154
C3    1    0.584951   -0.009857    0.607101    11.00000    0.04138    0.03001 =
         0.02148   -0.00626    0.00643   -0.00304
AFIX  43
H3    2    0.580919    0.012156    0.531388    11.00000   -1.20000
AFIX   0
C11   1    0.829610    1.001897    0.759085    11.00000    0.03146    0.03101 =
         0.05616    0.00341    0.00490    0.00164
C12   1    0.819224    0.900295    0.852727    11.00000    0.06889    0.04340 =
         0.04887   -0.01919    0.02326   -0.02168
AFIX  43
H12   2    0.841241    0.954617    0.922034    11.00000   -1.20000
AFIX   0
C13   1    0.775686    0.715327    0.844637    11.00000    0.06914    0.04373 =
         0.03756   -0.01337    0.02472   -0.02599
AFIX  43
H13   2    0.768296    0.649280    0.909398    11.00000   -1.20000
AFIX   0
C9    1    0.752291    0.733979    0.651901    11.00000    0.06097    0.06544 =
         0.02849    0.00974   -0.00512   -0.03061
AFIX  43
H9    2    0.728938    0.683308    0.582471    11.00000   -1.20000
AFIX   0
C10   1    0.796109    0.919296    0.659156    11.00000    0.06337    0.06166 =
         0.03862    0.02082    0.00013   -0.02381
AFIX  43
H10   2    0.802547    0.987679    0.594475    11.00000   -1.20000
AFIX   0
PART 1
C15A  1    0.935359    1.473619    0.703414    21.00000    0.03548    0.02751 =
         0.07624    0.00188    0.01903   -0.00966
AFIX 137
H15A  2    0.933690    1.570426    0.641848    21.00000   -1.50000
H15B  2    0.984493    1.418651    0.726986    21.00000   -1.50000
H15C  2    0.921182    1.550521    0.763562    21.00000   -1.50000
AFIX   0
C14A  1    0.883763    1.289576    0.669079    21.00000    0.03197    0.03931 =
         0.06257    0.01796    0.00708   -0.00324
AFIX  23
H14A  2    0.837228    1.342875    0.626757    21.00000   -1.20000
H14B  2    0.904419    1.188805    0.623111    21.00000   -1.20000
AFIX   0
PART 0
PART 2
C14B  1    0.907362    1.279115    0.872189   -21.00000    0.04243    0.04934 =
         0.06574   -0.00797    0.00879   -0.00451
AFIX  23
H14C  2    0.939407    1.173256    0.916237   -21.00000   -1.20000
H14D  2    0.869981    1.321222    0.912870   -21.00000   -1.20000
AFIX   0
C15B  1    0.950826    1.472246    0.853116   -21.00000    0.05645    0.03193 =
         0.10178   -0.00313    0.01542   -0.00610
AFIX 137
H15D  2    0.980453    1.437276    0.800078   -21.00000   -1.50000
H15E  2    0.982141    1.515347    0.921735   -21.00000   -1.50000
H15F  2    0.918036    1.589202    0.825183   -21.00000   -1.50000
AFIX   0
HKLF 4




REM  tf-10_a.res in P2(1)/c
REM wR2 = 0.1617, GooF = S = 1.111, Restrained GooF = 1.111 for all data
REM R1 = 0.0564 for 2580 Fo > 4sig(Fo) and 0.0593 for all 2836 data
REM 194 parameters refined using 3 restraints

END

WGHT      0.1000      2.1492

REM Highest difference peak  1.658,  deepest hole -0.680,  1-sigma level  0.155
Q1    1   0.9987  1.6614  0.9910  11.00000  0.05    1.66
Q2    1   1.0580  1.3636  0.9729  11.00000  0.05    1.42
Q3    1   1.0000  1.5000  1.0000  10.50000  0.05    1.27
Q4    1   0.6832  0.1047  0.8798  11.00000  0.05    1.03
Q5    1   0.9446  1.1810  0.5253  11.00000  0.05    0.97
Q6    1   0.9446  1.2735  0.5416  11.00000  0.05    0.94
Q7    1   0.8809  1.1121  0.6744  11.00000  0.05    0.93
Q8    1   0.6849  0.5320  0.8806  11.00000  0.05    0.80
Q9    1   0.8190  0.8099  0.6266  11.00000  0.05    0.78
Q10   1   0.7812  0.6361  0.6302  11.00000  0.05    0.71
Q11   1   0.8997  1.2977  0.7477  11.00000  0.05    0.71
Q12   1   0.8419  0.9478  0.7003  11.00000  0.05    0.70
Q13   1   0.9656  1.5137  0.5412  11.00000  0.05    0.66
Q14   1   0.8019  0.9272  0.7936  11.00000  0.05    0.59
Q15   1   0.6234  0.1365  0.7305  11.00000  0.05    0.55
Q16   1   0.7646  0.7861  0.7946  11.00000  0.05    0.49
Q17   1   0.6257  0.0018  0.8407  11.00000  0.05    0.47
Q18   1   0.6670  0.3289  0.6788  11.00000  0.05    0.47
Q19   1   0.6490  0.1656  0.8258  11.00000  0.05    0.47
Q20   1   0.6819  0.3278  0.7771  11.00000  0.05    0.44
;
_shelx_res_checksum                84027
_shelx_hkl_file
;
   1   0   0 1158.25   57.58
   2   0   0 3262.91  161.48
   3   0   0 3062.69  152.67
   4   0   0  848.62   45.11
   5   0   0  620.51   34.83
   6   0   0  714.38   40.42
   7   0   0  162.49   13.33
   8   0   0 2277.51  119.57
   9   0   0  782.25   47.08
  10   0   0  168.41   11.17
  11   0   0  962.31   51.22
  11   0   0  993.45   58.64
  12   0   0   28.00    3.85
  12   0   0   16.04    5.22
  13   0   0  440.43   25.82
  13   0   0  411.17   32.56
  14   0   0  647.35   46.40
  14   0   0  672.46   37.78
  15   0   0    9.25    3.04
  15   0   0   19.78    6.56
  16   0   0  979.59   52.53
  16   0   0  868.33   61.75
  17   0   0   56.62   11.09
  17   0   0   61.13    7.14
 -18   0   0   27.56    4.89
 -19   0   0  201.33   15.00
 -20   0   0    3.97    2.04
 -21   0   0  158.12   11.35
 -22   0   0   55.91    5.20
   0  -1   0   -1.39    1.02
   1  -1   0 1827.28   88.64
   1   1   0 1790.55   87.43
  -1   1   0 1775.89   87.39
  -1  -1   0 1721.77   87.40
  -2   1   0 1273.00   62.13
   2  -1   0 1248.11   62.18
   2   1   0 1136.85   62.16
   2   1   0 1254.07   62.19
  -2  -1   0 1256.68   62.12
  -3  -1   0  213.60   12.99
   3   1   0  216.40   13.08
   3  -1   0  214.21   13.08
  -3   1   0  216.63   12.96
   3   1   0  211.32   12.48
  -4  -1   0 9999.00  477.58
   4  -1   0 9327.29  477.54
   4   1   0 9900.34  477.60
  -4   1   0 9524.15  477.32
   5  -1   0 5985.40  301.31
   5   1   0 5930.95  301.19
  -5   1   0 6172.11  301.06
  -5  -1   0 6146.32  301.19
  -6  -1   0  811.60   48.28
   6  -1   0  979.81   49.49
   6   1   0  901.55   48.92
  -6   1   0  859.47   48.53
   7   1   0 1155.85   63.24
  -7   1   0 1157.06   63.07
  -7  -1   0 1148.84   63.06
   7  -1   0 1162.02   63.42
  -8  -1   0   73.52    8.90
  -8   1   0   69.66    8.54
   8  -1   0   79.92    9.07
   8   1   0   80.80    9.13
   9   1   0  649.18   32.15
  -9  -1   0  642.30   38.14
   9  -1   0  524.05   31.67
  -9   1   0  641.67   37.88
 -10  -1   0  910.47   51.17
  10   1   0  838.81   50.20
  10   1   0  785.97   43.64
  10  -1   0  821.40   43.84
  10  -1   0  822.69   50.06
 -10   1   0  919.89   51.06
  11  -1   0  355.02   26.84
  11   1   0  374.13   27.04
  11   1   0  345.90   20.64
  11  -1   0  338.95   20.57
  12  -1   0  758.41   41.44
  12   1   0  749.42   41.16
  12   1   0  753.22   48.59
  12  -1   0  764.47   48.95
  13   1   0   91.42   12.71
  13  -1   0  101.93    8.42
  13   1   0   81.47    7.66
  13  -1   0  104.64   13.40
  13  -1   0   74.52    7.00
  14  -1   0   35.24    4.47
  14   1   0   32.20    8.30
  14  -1   0   45.38    5.52
  14  -1   0   34.35    8.13
  14   1   0   47.31    5.55
  15   1   0  325.99   19.84
  15  -1   0  256.65   17.90
  15  -1   0  319.92   19.83
  15  -1   0  314.50   28.18
  15   1   0  285.96   26.70
  16  -1   0    0.68    1.04
  16  -1   0    0.48    1.48
  16  -1   0    4.45    3.62
  16   1   0    0.47    1.54
  16   1   0    4.34    3.16
 -17   1   0  256.31   17.32
  17  -1   0  240.60   24.94
  17   1   0  189.07   23.11
 -17  -1   0  241.76   17.18
 -18  -1   0  176.76   13.32
 -18   1   0  153.18   12.75
 -19   1   0    3.01    2.25
 -19  -1   0    2.62    2.08
 -20   1   0  111.42    9.48
 -20  -1   0  124.51    9.82
 -21  -1   0   86.36    7.09
 -21   1   0   89.97    7.21
  21  -1   0   70.51    6.90
  21   1   0   76.23    6.92
 -22   1   0   -0.39    1.00
 -22  -1   0    0.20    0.88
   0  -2   0 1046.47   55.66
  -1  -2   0  225.06   14.98
   1  -2   0  215.25   14.41
   2  -2   0  364.87   19.24
   2   2   0  371.79   19.30
   2  -2   0  391.19   22.14
   3   2   0  191.17   10.99
   3   2   0  185.12   12.23
   3  -2   0  167.63   10.78
   4   2   0   24.55    3.29
   4  -2   0   26.87    3.45
   4   2   0   27.57    3.60
   5   2   0 1958.65   91.99
   5  -2   0 1684.29   91.44
   5   2   0 1721.66   91.10
   6  -2   0   91.19    8.85
   6   2   0  103.65    9.11
   7  -2   0   84.27    9.05
   7   2   0  102.89    9.68
   8  -2   0   26.87    3.05
   8   2   0   22.30    2.90
   8   2   0   22.21    4.59
   8  -2   0   26.98    5.22
   9  -2   0 1209.71   62.49
   9  -2   0 1196.72   68.13
   9   2   0 1216.28   62.43
   9   2   0 1240.96   68.14
  10   2   0    3.33    2.58
  10   2   0    5.82    1.71
  10  -2   0    7.81    3.43
  10  -2   0    6.31    1.90
  11  -2   0  171.52   12.63
  11   2   0  173.65   17.04
  11  -2   0  210.05   18.43
  11  -2   0  180.97   12.51
  11   2   0  197.89   12.63
  12  -2   0   10.10    2.38
  12  -2   0    7.68    3.82
  12  -2   0    8.78    2.31
  12   2   0   11.54    4.31
  12   2   0   13.17    2.72
  13  -2   0  161.71   11.79
  13   2   0  163.12   11.80
  13  -2   0  145.96   17.01
  13  -2   0  155.86   11.80
  13   2   0  140.55   16.50
  14   2   0  151.87   17.71
  14  -2   0  190.29   19.74
  14   2   0  176.99   12.60
  14  -2   0  141.18   11.74
  14  -2   0  189.21   12.92
  15  -2   0    9.24    2.62
 -15  -2   0    8.00    2.75
  15  -2   0    8.99    2.41
 -15   2   0    8.57    2.73
  15   2   0    5.93    2.35
  15   2   0   11.92    4.35
  15  -2   0   12.47    4.55
 -16   2   0  232.13   16.03
 -16  -2   0  225.62   16.04
  16   2   0  229.89   22.49
  16  -2   0  193.42   22.65
 -17   2   0  131.12   10.77
  17  -2   0  116.22    9.83
 -17  -2   0  137.88   10.91
 -18   2   0    0.80    1.44
 -18  -2   0    2.87    1.79
 -19   2   0   11.91    2.56
 -19  -2   0   12.85    2.82
 -20   2   0    1.06    1.05
  20  -2   0    1.66    1.17
 -20  -2   0    0.81    1.02
  20   2   0    0.26    1.16
 -21   2   0    5.13    1.57
 -21  -2   0    8.82    1.67
  21  -2   0   11.82    1.99
  22  -2   0   20.82    2.21
   0  -3   0    0.60    1.60
  -1  -3   0    0.63    2.39
   1  -3   0   -0.58    1.78
  -2  -3   0  369.78   25.24
   3   3   0    0.99    1.33
  -3  -3   0    2.13    2.32
   4   3   0   28.75    4.44
   5   3   0   35.09    4.91
  -6  -3   0    6.95    3.16
   6  -3   0    7.03    1.84
   7  -3   0   -0.51    1.37
  -7  -3   0    1.87    1.77
   8  -3   0   44.26    6.38
  -8  -3   0   37.00    7.35
   9  -3   0  162.18   15.06
  -9  -3   0  191.05   17.88
  10  -3   0   13.80    4.19
 -10  -3   0   27.02    6.30
 -11  -3   0   50.73    9.05
  11  -3   0   32.89    6.78
 -12  -3   0   23.20    5.87
  12  -3   0   19.49    3.93
  12  -3   0   20.14    5.14
 -13  -3   0  108.74   13.09
  13  -3   0  107.53    9.90
 -14  -3   0   64.15    6.90
  14  -3   0   88.98    8.36
  15  -3   0    0.44    1.19
 -15  -3   0    0.75    1.36
  16  -3   0   13.21    3.04
 -16  -3   0    9.67    2.32
  17  -3   0   -0.38    1.75
  17  -3   0    0.34    1.33
  18  -3   0    1.29    1.05
  18  -3   0    1.31    1.56
  19  -3   0   17.38    2.79
  20  -3   0   27.57    3.16
  21  -3   0    3.99    0.93
   0  -4   0  182.98   12.09
   0  -4   0  170.20   12.34
   0  -4   0  184.08   16.74
   1  -4   0  111.08    9.13
  -1  -4   0  119.49    9.15
  -1  -4   0  106.66   12.53
  -2  -4   0  200.66   13.31
  -2  -4   0  178.98   17.54
   2   4   0  182.78   16.04
   2  -4   0  194.94   13.66
  -2  -4   0  206.51   13.03
  -3  -4   0  467.07   24.55
  -3  -4   0  392.09   24.32
  -3  -4   0  424.61   30.97
   3   4   0  397.70   27.71
   4  -4   0   73.82    7.11
   4   4   0   63.39    8.05
  -4  -4   0   71.61   10.65
  -4  -4   0   73.67    6.61
  -4  -4   0   63.60    6.10
   5   4   0   43.49    6.42
  -5  -4   0   40.58    4.58
   5  -4   0   31.89    4.77
  -5  -4   0   40.93    4.60
   5  -4   0   38.03    4.07
  -6  -4   0  247.63   15.65
   6  -4   0  238.65   16.73
  -7  -4   0   53.26    5.55
   7  -4   0   53.91    6.57
  -7  -4   0   66.32   10.85
   7  -4   0   62.26    6.39
   8  -4   0    1.56    1.70
  -8  -4   0    1.99    1.40
   8  -4   0    1.71    1.62
  -8  -4   0    2.62    3.19
   9  -4   0    5.45    2.34
   9  -4   0    5.54    2.50
  -9  -4   0    3.97    3.23
  -9  -4   0    4.34    1.87
 -10  -4   0    6.59    3.82
 -10  -4   0    9.36    2.26
  10  -4   0    8.74    3.01
  10  -4   0    6.73    2.65
  11  -4   0    1.51    1.98
  11  -4   0    1.14    1.97
 -11  -4   0    6.44    3.44
 -12  -4   0    7.33    3.29
  12  -4   0    8.69    2.76
  12  -4   0    9.28    3.01
  13  -4   0    5.37    2.40
  13  -4   0    5.61    2.68
  14  -4   0   40.15    5.43
  14  -4   0   36.65    5.30
  15  -4   0   22.27    3.92
  15  -4   0   15.41    3.25
  16  -4   0   21.81    3.51
  16  -4   0   22.63    3.67
  17  -4   0   35.41    4.31
  17  -4   0   31.07    3.83
  18  -4   0    6.37    1.74
 -19  -4   0    8.14    1.37
  19  -4   0   14.03    1.97
   0  -5   0   -0.45    1.57
   0  -5   0    4.34    1.92
   1  -5   0  529.30   30.68
   1  -5   0  502.47   29.59
  -1  -5   0  519.10   30.27
  -1  -5   0  547.50   30.02
   1   5   0  434.08   33.85
  -2  -5   0  346.04   22.08
   2  -5   0  379.76   23.07
   2  -5   0  342.70   21.54
  -3  -5   0    1.61    1.93
  -3  -5   0    2.51    1.59
  -4  -5   0  137.15   10.23
   4  -5   0  111.82    9.19
  -4  -5   0  115.20    9.72
  -4  -5   0   99.37   14.84
  -5  -5   0  181.45   12.74
   5  -5   0  197.39   14.16
   6  -5   0   23.44    4.53
   6  -5   0   16.74    3.00
  -6  -5   0   21.62    3.77
  -7  -5   0  121.62   10.11
   7  -5   0  133.37   11.78
  -7  -5   0  119.76   16.07
   8  -5   0   36.91    5.81
  -8  -5   0   38.43    4.94
  -8  -5   0   36.06    8.23
   9  -5   0   82.31    9.21
  -9  -5   0   82.28    7.61
   9  -5   0   82.33    8.31
  -9  -5   0   87.81   13.00
  10  -5   0  229.78   16.04
 -10  -5   0  204.06   14.26
  10  -5   0  226.21   16.96
  11  -5   0    2.41    2.12
  11  -5   0    8.65    2.78
  12  -5   0  122.50   10.26
  12  -5   0  111.96   10.31
  13  -5   0   49.31    6.09
  13  -5   0   60.97    6.35
  14  -5   0    9.58    2.48
  14  -5   0    6.26    2.08
  15  -5   0   73.80    6.29
  15  -5   0   61.39    5.82
  16  -5   0   17.22    2.25
 -16   5   0    3.43    1.23
   0  -6   0  432.23   25.45
   0  -6   0  388.06   24.67
   1  -6   0   25.74    4.31
  -1  -6   0   34.42    4.91
  -1  -6   0   26.77    4.33
   1  -6   0   29.39    4.74
  -2  -6   0   82.28    7.82
   2  -6   0   70.80    7.35
   2  -6   0   85.45    8.36
   3  -6   0  267.18   17.83
  -3  -6   0  284.84   17.67
  -4  -6   0   20.41    3.84
   4  -6   0   16.50    3.22
   5  -6   0  246.68   17.48
  -5  -6   0  394.49   20.39
  -6  -6   0  283.29   18.27
   6  -6   0  280.73   19.31
   7  -6   0   35.38    5.52
  -7  -6   0   44.27    5.25
  -8  -6   0  302.14   18.79
   8  -6   0  316.00   20.64
   9  -6   0   96.53    9.09
  10  -6   0   22.59    3.94
  11  -6   0  202.90   13.76
  12  -6   0   18.05    2.87
  13  -6   0   65.58    5.44
  14  -6   0   52.31    4.10
   0  -7   0    1.70    1.63
   1  -7   0  282.98   17.84
  -1  -7   0  329.11   18.66
   2  -7   0   25.24    3.52
  -2  -7   0   33.76    4.30
   3  -7   0   70.42    6.43
  -4  -7   0  291.58   17.92
   4  -7   0  311.83   18.41
  -5   7   0   14.14    2.09
   7  -7   0  160.17   10.94
   8  -7   0    2.27    1.14
   9  -7   0  105.67    7.30
  10  -7   0   76.47    5.34
 -23   0   1    0.47    0.64
 -22   0   1    0.76    1.07
  21   0  -1    0.68    1.11
 -21   0   1    0.68    1.43
 -20   0   1   -0.41    1.49
 -19   0   1   -0.94    2.29
  17   0  -1    1.00    1.15
  17   0  -1    1.58    2.98
  16   0  -1   -0.48    1.91
  16   0  -1   -1.52    2.87
  15   0  -1   -0.46    1.81
  15   0  -1    1.41    3.08
  14   0  -1    0.66    1.26
  14   0  -1   -1.29    3.46
  14   0  -1    1.28    1.61
  13   0  -1    0.60    0.93
  13   0  -1    0.77    1.46
  13   0  -1    1.17    2.21
  12   0  -1    0.34    1.18
  12   0  -1    5.20    3.00
  11   0  -1   -0.30    1.15
  10   0  -1    2.41    2.15
  10   0  -1    3.48    1.55
   9   0  -1   -0.70    1.88
   9   0  -1   -0.23    0.84
   8   0  -1   -0.61    1.23
   8   0  -1    0.61    1.88
   7   0  -1    0.52    1.88
   6   0  -1   -0.44    2.09
   5   0  -1    0.71    1.55
   4   0  -1   -0.55    1.38
   3   0  -1    2.24    1.32
   2   0  -1   -0.59    0.90
   1   0  -1    1.31    0.74
   0   0  -1    0.56    0.60
   1   0   1   -0.13    0.66
   2   0   1    1.29    0.94
   3   0   1    1.51    1.35
   4   0   1    0.66    1.68
   5   0   1    0.41    1.42
   6   0   1   -0.50    2.25
   7   0   1    0.59    1.70
   8   0   1    0.69    2.49
   9   0   1    3.19    2.76
  10   0   1    5.51    3.18
  11   0   1   -2.07    3.00
  12   0   1   -0.36    1.25
  13   0   1    1.24    2.72
  13   0   1    1.62    1.82
  14   0   1    2.21    1.74
  14   0   1   -1.35    2.95
  15   0   1    2.87    3.13
  15   0   1   -1.41    1.98
 -16   0  -1   -0.52    1.71
  16   0   1   -1.49    3.25
  16   0   1   -0.48    2.24
  17   0   1    2.90    2.11
  17   0   1    2.97    2.30
 -17   0  -1    0.52    1.70
  18   0   1   -1.83    1.73
 -18   0  -1    3.44    2.08
 -19   0  -1    2.64    1.80
 -20   0  -1    1.11    1.66
 -21   0  -1   -0.29    1.25
 -22   0  -1   -0.97    1.02
  23  -1  -1    2.77    0.82
 -22   1   1    1.54    1.23
 -22  -1   1    2.85    1.27
 -21   1   1    2.15    1.57
 -21  -1   1   -0.93    1.39
  21   1  -1    0.92    1.21
  21  -1  -1   -0.31    1.24
 -20   1   1    3.06    1.83
 -20  -1   1    3.48    1.89
 -19   1   1   29.14    4.55
 -19  -1   1   30.42    4.78
  18  -1  -1   55.61    5.73
  17  -1  -1   -1.57    3.83
  17  -1  -1   -0.36    1.31
  17   1  -1   -1.53    2.36
  16  -1  -1   90.17   14.38
  16   1  -1   90.80   14.69
  16  -1  -1   96.23    8.29
  16   1  -1   90.12    7.86
  15   1  -1   90.48    8.26
  15  -1  -1   66.04   11.83
  15  -1  -1   72.89    6.95
  15   1  -1   62.65    6.33
  15  -1  -1   71.97    7.54
  15   1  -1   79.68   12.70
  14  -1  -1    0.86    1.56
  14  -1  -1    1.31    2.87
  14   1  -1   -1.28    1.97
  14  -1  -1   -0.35    1.16
  14   1  -1   -0.30    1.09
  14   1  -1    0.42    1.29
  13   1  -1  160.14   11.17
  13  -1  -1  183.34   12.61
  13   1  -1  187.92   18.68
  13   1  -1  158.93   12.13
  13  -1  -1  165.62   18.05
  12  -1  -1  291.81   18.38
  12  -1  -1  285.70   24.60
  12   1  -1  302.06   18.36
 -12   1   1  286.68   24.29
  12   1  -1  280.29   24.16
 -12  -1   1  312.34   25.11
 -11  -1   1  198.54   18.27
  11   1  -1  198.28   12.84
  11  -1  -1  182.89   17.70
 -11   1   1  203.76   18.14
  11   1  -1  203.00   18.19
  11  -1  -1  182.48   12.70
  10   1  -1  721.95   41.85
 -10   1   1  590.15   40.44
  10  -1  -1  644.26   35.33
  10   1  -1  680.77   35.41
 -10  -1   1  572.49   40.46
  10  -1  -1  714.61   41.97
  -9   1   1    4.90    2.54
   9  -1  -1    2.88    1.21
   9   1  -1    4.91    2.76
   9  -1  -1    0.72    1.93
  -9  -1   1    0.72    1.93
   9   1  -1    2.82    1.39
   8  -1  -1  540.57   29.76
  -8   1   1  576.11   34.31
   8   1  -1  543.31   29.71
   8  -1  -1  577.54   34.51
   8   1  -1  621.36   34.84
  -8  -1   1  566.08   34.36
   7  -1  -1  832.39   48.66
  -7   1   1  858.49   48.86
  -7  -1   1  911.30   49.21
   7   1  -1  888.20   48.98
  -6  -1   1  772.11   42.86
   6  -1  -1  756.45   42.80
  -6   1   1  783.27   42.87
   6   1  -1  758.03   42.71
   5  -1  -1  122.83    9.55
   5   1  -1  120.41    9.48
   4  -1  -1 6019.52  289.15
   4   1  -1 5849.87  289.02
   4   1  -1 5667.89  288.70
   3   1  -1  668.69   35.36
   3  -1  -1  668.57   35.43
   3   1  -1  682.27   35.65
   2   1  -1   93.32    6.28
   2  -1  -1   86.80    6.20
   2   1  -1  106.72    7.08
   1   1  -1    2.39    0.82
   1  -1  -1    2.39    0.95
   0  -1  -1  141.83    8.57
   0   1  -1  164.95    8.71
   1   1   1   57.70    4.25
   1  -1   1   55.57    4.19
   1  -1   1   65.19    4.55
   2   1   1   74.56    4.88
   2  -1   1   83.56    5.92
   2  -1   1   81.27    5.33
  -2  -1  -1   81.17    6.12
   2   1   1   76.22    5.87
   3  -1   1 1269.57   61.57
   3   1   1 1113.50   61.32
   4   1   1 2973.26  150.88
   4  -1   1 3024.88  150.97
   5   1   1  365.94   22.93
   5  -1   1  380.76   23.21
   6  -1   1  462.39   27.87
   6   1   1  435.42   27.60
   7   1   1   91.92    9.49
   7  -1   1   91.26    9.65
   8   1   1   15.23    4.15
   8  -1   1   18.35    4.30
   9  -1   1  172.05   15.97
   9   1   1  174.65   16.08
  10   1   1    9.15    4.26
  10  -1   1   10.25    3.84
  11   1   1   46.53    8.58
  11  -1   1   44.07    5.00
  11  -1   1   45.41    8.59
  12  -1   1  126.53   10.00
  12   1   1  131.21    9.97
  12  -1   1  148.12   16.30
  12   1   1  116.73   14.51
  13  -1   1   11.31    5.20
  13   1   1   16.82    3.30
  13  -1   1   19.20    3.62
  14  -1   1   27.01    7.35
  14   1   1   23.87    4.25
  14   1   1   29.02    7.60
  14  -1   1   33.65    4.78
  15  -1   1    6.99    2.55
  15   1   1    4.19    3.42
  15  -1   1    1.43    3.50
 -15  -1  -1    8.63    2.83
  15   1   1    5.94    2.50
 -15   1  -1    0.99    2.03
  16  -1   1   23.44    4.51
 -16  -1  -1   29.03    4.82
  16  -1   1   17.66    6.56
 -16   1  -1   28.35    4.75
  16   1   1   38.84    8.98
  16   1   1   33.33    4.94
  17   1   1   63.10    7.30
 -17   1  -1   63.49    7.52
  17  -1   1   71.32    7.67
 -17  -1  -1   76.54    8.04
 -18  -1  -1    0.47    1.99
 -18   1  -1   -0.93    1.82
 -19   1  -1  118.73    9.88
 -19  -1  -1  111.55    9.80
 -20  -1  -1    9.89    2.66
 -20   1  -1    7.40    2.36
 -21  -1  -1   24.50    3.31
 -21   1  -1   22.02    3.31
 -22  -1  -1   17.41    2.36
  22  -1   1   22.33    2.21
 -22   1  -1   14.27    2.22
  22  -2  -1   39.65    3.49
  21  -2  -1   -0.87    1.16
 -21   2   1    0.20    0.83
 -21  -2   1    0.81    0.88
  20  -2  -1    2.99    1.68
  20   2  -1    5.43    1.83
 -20   2   1    4.87    1.86
 -20  -2   1    4.35    1.80
 -19   2   1   10.69    2.71
 -19  -2   1    8.72    2.37
  19  -2  -1    8.86    2.78
  19   2  -1   10.91    2.62
  19  -2  -1   12.07    2.52
 -18   2   1   44.11    5.64
 -18  -2   1   53.59    6.11
 -17  -2   1  162.77   12.36
 -17   2   1  144.15   11.86
  17  -2  -1  153.55   11.65
  16   2  -1   12.56    4.63
  16  -2  -1   13.51    3.15
  16  -2  -1   23.42    6.43
  15  -2  -1  176.32   12.92
  15  -2  -1  175.53   20.14
  15   2  -1  157.86   18.91
  14   2  -1  414.13   35.21
  14  -2  -1  492.00   28.16
  14  -2  -1  490.43   37.14
  13   2  -1    1.17    1.81
  13  -2  -1    0.40    1.30
  13   2  -1    0.76    1.37
  13  -2  -1    3.10    3.42
  13  -2  -1   -1.23    1.34
  12   2  -1  759.07   40.47
  12  -2  -1  749.66   48.44
  12  -2  -1  720.71   40.65
  12  -2  -1  732.23   40.24
  12   2  -1  677.95   47.12
  12  -2  -1  768.06   40.67
  11   2  -1  781.14   49.31
  11   2  -1  804.44   42.71
  11  -2  -1  740.50   42.48
  11  -2  -1  781.05   43.08
  11  -2  -1  838.93   50.50
  11  -2  -1  845.09   42.96
 -10   2   1  117.88   12.96
  10   2  -1  118.07    8.80
  10  -2  -1  125.59    9.01
 -10  -2   1  115.53   12.93
  10  -2  -1  139.55   13.77
  10   2  -1  121.82   12.91
  -9   2   1 1148.59   64.61
   9   2  -1 1188.88   64.97
   9  -2  -1 1129.57   59.11
   9   2  -1 1130.98   59.05
  -9  -2   1 1178.01   65.25
   9  -2  -1 1159.22   64.99
   8  -2  -1 3991.46  196.66
  -8   2   1 3824.68  195.95
   8   2  -1 4014.64  196.46
   8   2  -1 3844.49  190.94
   8  -2  -1 3727.54  190.94
  -8  -2   1 3981.49  196.62
  -7   2   1   17.85    3.87
   7  -2  -1   11.47    3.40
  -7  -2   1   18.13    3.91
   7   2  -1   13.25    3.30
   6   2  -1 1898.29   98.97
   6  -2  -1 1928.71   99.16
  -6   2   1 1945.38   99.20
  -6  -2   1 1877.35   99.12
   5   2  -1  206.79   14.84
   5   2  -1  221.40   14.62
  -5  -2   1  220.51   14.84
   5  -2  -1  229.74   14.89
  -5   2   1  224.70   14.81
   4  -2  -1  212.55   13.32
  -4   2   1  203.70   13.18
  -4  -2   1  188.00   13.05
   4   2  -1  214.37   13.26
   4   2  -1  215.87   14.27
   3   2  -1  964.89   49.32
  -3  -2   1  959.49   49.32
   3   2  -1 1022.54   51.58
   3  -2  -1  939.85   49.30
  -3   2   1  925.08   49.20
  -2  -2   1   11.09    1.54
   2   2  -1   10.19    1.51
   2  -2  -1    8.71    1.46
  -2   2   1   12.15    1.57
   1  -2  -1  911.70   48.96
   0  -2  -1 1158.28   61.80
   0  -2   1 1184.39   61.71
   1  -2   1    1.85    0.61
   1  -2   1    0.34    1.12
  -1  -2  -1    1.53    0.58
   2  -2   1  644.12   34.11
   2   2   1  595.49   32.39
   2  -2   1  625.58   32.37
   3  -2   1  251.53   14.65
   3   2   1  237.84   14.51
  -3  -2  -1  238.15   16.32
   3   2   1  220.25   14.08
   4  -2   1  308.61   18.76
   4   2   1  281.77   18.38
  -4  -2  -1  297.12   19.88
   4   2   1  312.92   17.67
   5   2   1  566.65   32.39
   5  -2   1  547.03   32.31
   6   2   1  194.35   14.98
   6  -2   1  207.14   15.41
   7   2   1  522.02   32.65
   7  -2   1  533.47   32.88
   8  -2   1 1599.41   84.58
   8   2   1 1490.57   83.84
   9   2   1   29.90    6.02
   9  -2   1   27.60    3.46
   9   2   1   30.67    3.60
  10   2   1  640.78   39.23
  10  -2   1  622.09   32.78
  10   2   1  550.82   32.27
  10  -2   1  609.45   39.20
  11  -2   1   75.40    7.04
  11   2   1   75.71   10.66
  11  -2   1   83.52    7.33
  11  -2   1   98.71   12.06
 -11  -2  -1   77.53    9.68
  11   2   1   83.80    7.20
 -12  -2  -1   83.17    7.93
  12   2   1   80.91   11.53
  12  -2   1   83.23    7.41
 -12   2  -1   72.49    7.37
  12  -2   1   78.94   11.67
  12  -2   1   89.23    7.71
  12   2   1   87.63    7.64
 -12  -2  -1   88.59   10.06
  13  -2   1  326.26   27.42
 -13   2  -1  310.68   20.25
  13  -2   1  303.08   19.55
  13  -2   1  346.37   20.41
  13   2   1  289.95   26.07
  13   2   1  323.22   20.02
 -13  -2  -1  317.16   20.54
  14  -2   1    2.62    2.85
 -14   2  -1   -0.45    1.70
  14   2   1    0.82    1.35
  14  -2   1   -0.43    1.47
  14   2   1    6.27    3.06
 -14  -2  -1    0.47    1.62
 -15  -2  -1  154.33   12.24
  15   2   1  166.51   11.99
  15  -2   1  149.75   11.80
  15   2   1  158.06   17.48
  15  -2   1  137.84   17.61
 -15   2  -1  132.48   11.55
 -16   2  -1    8.61    2.65
  16   2   1   11.83    4.32
  16   2   1    5.45    2.19
  16  -2   1    8.21    3.68
  16  -2   1    9.53    2.75
 -16  -2  -1   11.33    2.99
 -17   2  -1   57.44    6.45
 -17  -2  -1   57.77    6.60
 -18  -2  -1   74.11    7.21
 -18   2  -1   72.66    7.22
 -19  -2  -1   -0.96    1.05
 -19   2  -1    1.25    1.18
 -20   2  -1  104.75    8.23
 -20  -2  -1  107.24    8.25
  21  -2   1   94.12    5.88
 -21   2  -1   64.32    5.23
  19  -3  -1   42.18    4.26
  18  -3  -1  184.48   12.67
  17  -3  -1   29.34    4.46
  16  -3  -1  226.62   14.78
  16  -3  -1  253.24   16.06
 -15  -3   1  101.99    9.11
  15  -3  -1  134.86   10.91
 -14  -3   1   90.69   12.09
 -14  -3   1   73.75    7.25
 -13  -3   1 1839.81  104.22
  12  -3  -1  357.05   28.94
  12  -3  -1  382.03   23.75
  11  -3  -1  244.31   16.68
  11  -3  -1  215.07   20.28
  10  -3  -1  901.22   55.06
  10  -3  -1 1013.01   50.44
  10  -3  -1  842.33   50.03
   9  -3  -1  158.28   12.46
   9  -3  -1  183.89   15.81
   9  -3  -1  180.17   13.17
   8  -3  -1  599.40   37.92
   8  -3  -1  676.56   35.69
   8  -3  -1  610.96   35.27
   7  -3  -1  714.57   41.03
   6   3  -1   27.34    4.80
   6  -3  -1   20.54    3.44
   5   3  -1 1177.98   64.30
   4   3  -1  725.18   41.97
   3   3  -1   65.23    7.44
  -3  -3   1   49.47    7.42
  -2  -3   1 1240.52   68.65
  -1  -3   1  608.30   36.90
   0  -3   1  484.53   29.99
   0  -3  -1  467.06   29.95
  -1  -3  -1 1206.04   66.25
   1  -3   1 1193.99   65.33
   2  -3   1   31.75    5.05
   3   3   1 2058.75  105.66
  -4  -3  -1  293.03   21.14
   4   3   1  253.77   17.04
  -5  -3  -1  103.64   11.41
  -6  -3  -1  674.86   39.41
   6  -3   1  558.71   33.77
  -7  -3  -1  194.37   17.16
   7  -3   1  167.35   13.82
   8  -3   1  304.63   19.27
   8  -3   1  277.28   21.25
  -8  -3  -1  344.24   25.14
  -9  -3  -1  681.75   36.75
   9  -3   1  679.24   42.12
  -9  -3  -1  765.28   45.50
   9  -3   1  668.58   38.59
  10  -3   1   12.69    3.11
  10  -3   1   10.27    3.29
 -10  -3  -1   16.13    4.96
  11  -3   1  114.02   12.36
 -11  -3  -1   89.35   11.90
  11  -3   1   95.56    7.91
  11  -3   1  105.21    9.42
 -12  -3  -1  126.42   13.59
  12  -3   1  107.26    9.09
  12  -3   1  134.28   10.78
  13  -3   1    7.69    2.64
 -13  -3  -1    8.19    2.58
 -14  -3  -1  159.62   12.63
  14  -3   1  202.53   13.80
  15  -3   1    3.53    1.87
 -15  -3  -1    1.85    1.67
  16  -3   1  200.01   13.23
  16  -3   1  156.11   11.94
  17  -3   1  160.73   11.69
  18  -3   1   13.16    2.59
  19  -3   1  134.07    9.20
  20  -3   1   98.04    6.69
  18  -4  -1   80.26    6.31
  17  -4  -1  409.42   23.74
  16  -4  -1   86.78    7.98
  15  -4  -1   21.04    3.98
  14  -4  -1  432.73   26.86
 -13  -4   1    8.81    3.65
  13  -4  -1    7.56    3.09
 -12  -4   1  417.53   33.75
  12  -4  -1  427.54   27.16
  11  -4  -1   93.26    9.60
 -11  -4   1   77.36   12.71
  10  -4  -1  110.99   10.46
 -10  -4   1   85.48    7.64
 -10  -4   1  118.44   15.31
   9  -4  -1  888.11   50.30
  -9  -4   1  943.27   60.47
   9  -4  -1  966.38   51.98
  -9  -4   1  915.89   48.91
   8  -4  -1  283.51   19.13
  -8  -4   1  302.11   27.02
   8  -4  -1  307.80   20.50
  -8  -4   1  307.04   18.43
  -7  -4   1  176.97   11.66
   7  -4  -1  162.63   12.86
   7  -4  -1  150.92   11.87
   6  -4  -1  816.58   43.88
   6   4  -1  769.80   47.61
  -6  -4   1  851.48   43.26
   6   4  -1  771.60   42.12
   5   4  -1   86.55   10.33
  -5  -4   1  108.19    8.29
   5  -4  -1  106.91    8.64
  -5  -4   1  106.65   13.42
   5   4  -1   98.83    7.49
  -5  -4   1  104.35    8.50
  -4  -4   1  717.28   39.46
   4   4  -1  714.63   43.91
   4  -4  -1  686.54   39.19
   4  -4  -1  746.31   40.31
  -4  -4   1  808.27   48.40
  -3  -4   1 1120.33   64.88
   3  -4  -1 1058.84   57.52
   3  -4  -1 1012.75   56.65
   3   4  -1 1107.39   62.36
  -3  -4   1 1164.06   57.43
   2  -4  -1  116.43    9.30
  -2  -4   1  111.74    8.95
  -2  -4   1  108.34   12.99
  -1  -4   1 1250.49   64.27
  -1  -4   1 1153.32   69.85
   1  -4  -1 1243.11   64.35
   1  -4  -1 1210.26   63.39
   0  -4  -1  116.80    8.66
   0  -4   1  103.71    8.13
   1  -4   1    9.17    1.98
   2  -4   1  495.42   26.92
  -2  -4  -1  457.76   32.29
   2   4   1  406.14   28.33
   2  -4   1  443.05   25.17
   3   4   1  106.18   10.39
  -3  -4  -1  128.99    9.06
   3  -4   1  121.62    9.75
  -3  -4  -1  109.76    8.76
   3  -4   1  119.66    9.04
   3  -4   1  104.78    8.17
   4  -4   1  502.68   28.01
  -4  -4  -1  563.05   29.12
  -4  -4  -1  465.94   28.49
   4  -4   1  527.31   29.27
   4  -4   1  515.41   29.90
  -5  -4  -1  972.43   48.75
   5  -4   1  835.16   48.70
  -5  -4  -1  928.96   57.10
   5  -4   1  926.49   49.94
   6  -4   1    6.57    2.09
   6  -4   1   10.09    2.71
  -6  -4  -1    2.31    2.21
  -6  -4  -1    8.74    2.31
   7  -4   1  454.97   27.43
   7  -4   1  423.27   26.22
  -7  -4  -1  432.30   33.54
  -7  -4  -1  456.84   25.83
  -8  -4  -1  488.53   34.70
   8  -4   1  415.03   26.92
   8  -4   1  422.42   26.13
  -8  -4  -1  445.20   25.43
   9  -4   1    7.37    2.53
  -9  -4  -1    8.64    4.05
  -9  -4  -1    4.75    1.68
   9  -4   1    3.81    2.32
 -10  -4  -1  140.86   16.02
  10  -4   1  150.34   11.90
 -10  -4  -1  138.67   10.35
  10  -4   1  136.76   12.20
  11  -4   1   -0.50    2.06
  11  -4   1    2.68    2.11
 -11  -4  -1    3.50    2.21
  12  -4   1   99.20    9.33
  12  -4   1   86.40    8.74
 -12  -4  -1   84.72   11.37
  13  -4   1  271.37   18.47
  13  -4   1  273.87   18.42
  14  -4   1    3.28    1.69
  14  -4   1    6.08    2.43
  15  -4   1  203.33   14.46
  15  -4   1  246.46   15.54
  16  -4   1  134.04    9.27
  16  -4   1   91.30    7.78
  17  -4   1    0.27    1.25
  18  -4   1   91.45    6.72
  19  -4   1   22.91    2.35
  17  -5  -1    3.48    1.03
  16  -5  -1   31.80    3.62
  15  -5  -1   59.45    5.94
  14  -5  -1   15.54    3.15
  13  -5  -1  143.79   11.74
  12  -5  -1   80.38    8.52
 -11  -5   1    3.54    1.53
  11  -5  -1    6.80    2.77
 -10  -5   1  133.02   10.59
  10  -5  -1  164.72   12.48
  10  -5  -1  159.03   13.42
  -9  -5   1   19.21    3.39
   9  -5  -1   19.76    3.79
   9  -5  -1   12.11    3.90
  -9  -5   1   24.91    6.65
   8  -5  -1  473.24   28.17
  -8  -5   1  384.33   35.45
   8  -5  -1  456.30   29.23
  -8  -5   1  481.53   27.26
  -7  -5   1  158.70   11.83
   6  -5  -1  164.29   12.29
  -6  -5   1  191.30   21.58
   5   5  -1  311.20   18.08
  -5  -5   1  276.09   26.61
   5  -5  -1  264.75   18.16
  -4  -5   1  203.28   21.47
  -4  -5   1  227.90   15.46
   4   5  -1  212.10   13.86
   4  -5  -1  202.22   14.34
   4  -5  -1  227.10   16.29
  -4  -5   1  244.70   15.42
   4   5  -1  202.45   18.50
   3  -5  -1   98.76    8.90
   3  -5  -1  117.98   10.34
  -3  -5   1  124.94   10.13
  -3  -5   1  107.36   14.49
   3   5  -1  114.38   12.79
  -3  -5   1  118.56    9.63
   2  -5  -1  461.92   26.98
   2   5  -1  436.28   32.57
   2  -5  -1  455.74   27.98
  -2  -5   1  477.88   27.85
  -1  -5   1   12.68    2.95
   1   5  -1   12.68    4.18
   1  -5  -1    5.49    2.18
   1  -5  -1    7.77    2.48
   0  -5   1  532.89   30.36
   0  -5  -1  516.57   30.64
   0  -5   1  524.97   31.03
   0  -5  -1  520.84   30.29
   1  -5   1  609.08   34.43
  -1  -5  -1  601.80   34.49
  -1  -5  -1  611.66   34.75
  -2  -5  -1    1.63    1.48
   2  -5   1    3.40    1.80
   3  -5   1  399.49   24.54
  -3  -5  -1  403.55   23.70
   3  -5   1  375.93   22.94
  -3  -5  -1  359.23   22.98
   4  -5   1  410.72   25.00
   4  -5   1  368.22   22.70
  -4  -5  -1  422.27   24.05
  -4  -5  -1  357.65   22.92
   5  -5   1    0.64    1.31
  -5  -5  -1    0.84    1.46
   5  -5   1    1.07    1.66
   6  -5   1   16.60    3.90
  -6  -5  -1   23.42    3.98
   6  -5   1   21.71    3.33
   7  -5   1    5.69    2.57
  -7  -5  -1    3.66    2.05
  -8  -5  -1  109.86    9.02
   8  -5   1   96.94   10.06
   8  -5   1   95.99    9.23
  -9  -5  -1  297.05   19.38
   9  -5   1  328.85   22.00
   9  -5   1  325.93   20.91
  10  -5   1    4.38    2.69
  10  -5   1    7.69    2.64
  11  -5   1  314.95   21.82
  11  -5   1  367.88   22.28
  12  -5   1  210.81   15.48
  12  -5   1  234.97   15.73
  13  -5   1    7.96    2.45
  13  -5   1   12.65    2.82
  14  -5   1  129.09    8.79
  14  -5   1   80.94    7.56
 -15   5  -1    5.31    1.75
  15  -5   1    9.47    1.87
 -16   5  -1    4.01    1.48
 -17  -5  -1   34.79    3.18
  14  -6  -1   17.44    2.34
  13  -6  -1    0.49    1.03
  12  -6  -1    2.47    1.47
  11  -6  -1   -1.86    1.77
  10  -6  -1    7.71    2.63
  -9  -6   1   31.42    3.93
   9  -6  -1   25.10    4.58
  -8  -6   1   15.05    3.08
  -7  -6   1   10.27    2.55
  -6  -6   1    8.20    2.55
   5  -6  -1    0.49    1.62
  -5  -6   1    0.41    1.78
   5  -6  -1    0.29    1.28
  -4  -6   1  136.31   10.30
   4  -6  -1  123.04   10.60
  -3  -6   1  159.31   11.91
   3  -6  -1  137.64   11.06
   3  -6  -1  166.00   12.54
   3   6  -1  144.93   10.17
   2  -6  -1   21.42    4.02
   2   6  -1   17.84    2.91
   2  -6  -1   19.77    3.61
  -2  -6   1   23.67    4.04
   1   6  -1  151.27   11.35
   1  -6  -1  175.88   12.79
  -1  -6   1  172.29   12.83
   1  -6  -1  188.65   13.32
  -1  -6   1  172.96   13.04
   0  -6   1  274.29   17.76
   0  -6   1  269.54   18.05
   0  -6  -1  244.44   17.46
   0  -6  -1  267.30   17.74
  -1  -6  -1    3.50    2.15
  -1  -6  -1    5.37    2.08
   1  -6   1    3.64    1.83
   2  -6   1   81.36    7.20
  -2  -6  -1   55.68    6.48
   3  -6   1   37.13    4.80
   4  -6   1   83.37    8.37
  -4  -6  -1   91.61    8.08
   5  -6   1   93.04    8.64
  -5  -6  -1   89.12    7.93
   6  -6   1   26.17    4.56
  -6  -6  -1   22.01    3.79
  -7  -6  -1   90.94    7.86
   7  -6   1   86.65    8.73
   8  -6   1   48.52    6.15
   9  -6   1    8.84    2.67
  10  -6   1   28.12    4.11
  11  -6   1   -1.18    1.37
  12  -6   1   34.20    3.87
  13  -6   1   40.04    3.60
 -14  -6  -1    3.18    0.94
  10  -7  -1    5.94    1.24
   7  -7  -1    5.02    1.72
  -6  -7   1    3.40    1.41
   6  -7  -1    4.20    1.54
  -5  -7   1   23.21    3.39
   5  -7  -1   24.54    3.48
  -4  -7   1   12.82    2.69
   4  -7  -1   18.64    2.92
   3  -7  -1    3.47    1.59
  -1  -7   1    4.12    1.83
   0  -7   1    0.57    1.38
  -1   7  -1    0.83    0.85
   1  -7   1   -0.26    1.25
   2  -7   1    5.84    1.90
  -2   7  -1    9.39    1.72
  -3   7  -1    0.55    0.83
  -4   7  -1   -0.19    0.73
   5  -7   1    1.46    1.43
  -5   7  -1    2.41    1.15
   6  -7   1    2.49    1.48
   7  -7   1   -0.24    1.00
   8  -7   1    4.19    1.31
   9  -7   1    6.12    1.34
 -23   0   2   93.38    6.74
 -22   0   2   16.55    2.95
  22   0  -2   18.87    3.23
  21   0  -2   33.35    4.67
 -21   0   2   40.22    4.97
 -20   0   2  181.30   13.01
  20   0  -2  168.65   12.82
  20   0  -2  155.36   10.74
  19   0  -2    7.09    1.99
  18   0  -2  191.58   13.25
  17   0  -2  228.77   24.72
  16   0  -2  106.41   15.58
  15   0  -2  236.52   15.73
  15   0  -2  243.49   24.32
  14   0  -2  462.59   36.05
  14   0  -2  465.27   26.77
  13   0  -2  164.76   11.59
  13   0  -2  173.82   12.39
  13   0  -2  163.79   17.82
  12   0  -2  559.38   38.40
  12   0  -2  546.65   31.07
  11   0  -2   86.32   11.40
  11   0  -2  106.01    8.10
  10   0  -2  621.94   33.43
  10   0  -2  595.94   39.25
   9   0  -2 1031.94   54.13
   9   0  -2 1096.45   60.22
   8   0  -2   -0.63    2.38
   8   0  -2    3.59    1.32
   7   0  -2  542.09   32.72
   6   0  -2   52.45    6.22
   5   0  -2  850.92   46.21
   4   0  -2 2928.82  147.28
   3   0  -2    8.24    2.05
   2   0  -2   18.76    2.72
   1   0  -2 1171.18   60.04
   1   0  -2 1169.74   58.74
   0   0  -2 4867.31  240.95
   1   0   2  537.93   29.02
   2   0   2 1194.00   61.69
   3   0   2 2140.78  108.75
   4   0   2  690.16   38.50
   5   0   2  545.61   30.65
  -5   0  -2  500.43   25.59
   6   0   2 1254.44   68.26
   7   0   2 1584.51   85.67
   8   0   2  304.68   22.95
   9   0   2 1659.58   91.90
  10   0   2  226.83   20.58
  11   0   2  609.83   42.26
  12   0   2 1952.52  109.79
 -12   0  -2 1929.39   99.92
  13   0   2  306.85   19.16
  13   0   2  261.29   25.98
 -13   0  -2  285.66   19.27
  14   0   2  298.66   19.19
  14   0   2  247.21   25.87
 -14   0  -2  276.58   19.20
  15   0   2  648.24   36.90
 -15   0  -2  632.31   37.19
  15   0   2  608.85   46.28
  16   0   2   85.56    8.69
 -16   0  -2   81.55    8.78
  16   0   2   95.17   14.57
  17   0   2  208.03   15.85
 -17   0  -2  249.26   17.04
  18   0   2  176.25   12.96
 -18   0  -2  153.48   12.72
 -19   0  -2   22.44    4.08
 -20   0  -2  130.17   10.15
 -21   0  -2   64.99    5.72
 -21   0  -2  156.71    8.39
 -22   0  -2   47.84    4.06
 -23  -1   2    1.86    0.82
 -23   1   2    0.94    0.76
 -22  -1   2  124.07    8.78
 -22   1   2  123.55    8.95
  21  -1  -2  136.36   11.01
 -21  -1   2  158.21   10.93
 -21   1   2  170.81   11.35
  21   1  -2  131.54   10.84
  20  -1  -2    1.05    1.11
 -20  -1   2   -0.39    1.66
 -20   1   2    0.39    1.53
  20   1  -2    0.39    1.48
  20  -1  -2    1.61    1.64
  19   1  -2  241.45   15.48
  19  -1  -2  269.91   16.41
  18  -1  -2  106.08    9.01
  17  -1  -2   78.96    7.67
  17   1  -2   86.90    7.59
  17  -1  -2   58.06   12.56
  17   1  -2   84.74   13.94
  16   1  -2  339.94   30.63
  16  -1  -2  310.13   20.09
  16  -1  -2  308.50   29.96
  16   1  -2  328.81   19.87
  15   1  -2   25.92    3.85
  15  -1  -2   25.26    7.55
  15  -1  -2   28.23    4.10
  15   1  -2   31.80    7.84
 -14  -1   2  367.35   31.18
  14   1  -2  369.96   21.98
  14  -1  -2  401.83   32.47
  14   1  -2  356.43   30.97
 -14   1   2  387.93   31.26
  13   1  -2  265.36   24.09
 -13   1   2  239.77   23.19
 -13  -1   2  293.62   24.75
  13   1  -2  269.55   16.47
  13  -1  -2  271.32   24.44
  12  -1  -2   11.02    4.36
  12   1  -2    9.76    2.50
 -12   1   2   10.34    4.25
  12  -1  -2    9.36    2.24
  12   1  -2    5.37    3.13
 -12  -1   2   14.80    4.91
  12   1  -2    8.81    2.01
  12  -1  -2    8.22    2.21
  11   1  -2   32.34    6.90
  11  -1  -2   32.18    6.90
  11  -1  -2   35.37    4.42
 -11   1   2   35.06    7.00
 -11  -1   2   50.96    8.19
  11   1  -2   42.66    4.58
  10  -1  -2  159.36   15.16
  10   1  -2  154.89   15.06
 -10  -1   2  148.78   14.82
 -10   1   2  167.48   15.19
  10  -1  -2  156.32   10.61
  10   1  -2  150.85   10.50
   9  -1  -2  375.17   20.96
  -9   1   2  312.65   24.57
   9  -1  -2  393.80   26.27
   9   1  -2  376.99   20.87
   9   1  -2  392.99   26.22
  -9  -1   2  323.61   24.90
   8  -1  -2  860.11   45.15
   8  -1  -2  845.40   50.10
   8   1  -2  897.73   50.37
   8   1  -2  880.00   45.18
   7  -1  -2   66.27    8.05
   7   1  -2   95.09    9.14
   6  -1  -2  332.20   21.17
   6   1  -2  319.06   21.05
   5  -1  -2 4708.23  232.55
   5   1  -2 4596.42  232.38
   4   1  -2  837.73   43.57
   4   1  -2  807.05   43.73
   4  -1  -2  794.80   43.78
   3   1  -2 2066.54   98.58
   3  -1  -2 1822.48   98.16
   2   1  -2   67.22    5.65
   2  -1  -2   63.93    5.66
   1  -1  -2  450.43   26.20
   1   1  -2  515.33   26.46
   0   1  -2 1382.69   67.32
   0  -1  -2 1266.56   67.20
   1   1   2  117.93    8.45
   1  -1   2  122.38    8.39
   2   1   2 1222.15   65.61
  -2  -1  -2 1311.99   65.15
   2  -1   2 1259.84   63.77
   2  -1   2 1322.65   65.82
   3  -1   2  192.79   13.75
  -3  -1  -2  228.42   13.22
   3   1   2  207.62   13.97
   4  -1   2   14.11    3.17
  -4  -1  -2   11.71    2.32
   4   1   2   13.95    2.92
  -5  -1  -2  290.72   17.26
   5   1   2  275.93   18.95
   5  -1   2  286.52   19.26
   6  -1   2  303.11   20.51
  -6  -1  -2  276.20   17.48
   6   1   2  288.61   20.11
   7   1   2  880.82   50.90
   7  -1   2  878.24   51.06
  -7  -1  -2  881.00   47.28
  -8  -1  -2 1401.00   75.18
   8   1   2 1439.38   79.95
   8  -1   2 1560.52   80.75
  -9  -1  -2   53.73    5.92
   9   1   2   50.86    8.45
   9  -1   2   66.01    9.37
  10   1   2  264.78   23.03
 -10  -1  -2  270.59   17.70
  10  -1   2  300.80   24.12
 -11  -1  -2 1054.84   57.92
 -11   1  -2 1116.00   57.95
  11   1   2 1140.36   66.85
  11  -1   2 1038.63   65.80
 -12   1  -2    7.25    2.29
  12   1   2    6.17    3.57
  12  -1   2    5.02    3.63
 -12  -1  -2    2.63    1.93
 -13  -1  -2  746.36   43.92
  13  -1   2  864.90   44.10
  13   1   2  809.10   43.72
  13  -1   2  781.57   52.77
  13   1   2  694.89   51.26
 -13   1  -2  771.58   43.92
  14  -1   2  209.84   22.71
  14   1   2  235.56   16.18
  14  -1   2  219.99   16.05
 -14   1  -2  241.91   16.72
 -14  -1  -2  239.11   16.77
  14   1   2  206.77   22.70
  15   1   2   53.46    6.64
 -15  -1  -2   59.04    7.02
  15  -1   2   46.40    9.98
  15   1   2   56.80   11.06
  15  -1   2   54.83    6.64
 -15   1  -2   52.92    6.75
  16   1   2  626.08   35.52
  16  -1   2  576.40   44.57
  16  -1   2  645.20   35.65
  16   1   2  529.05   43.49
 -16  -1  -2  603.21   35.84
 -16   1  -2  605.19   35.72
 -17   1  -2  186.29   14.15
  17   1   2  175.75   13.74
 -17  -1  -2  188.08   14.41
  17  -1   2  191.67   14.11
 -18  -1  -2  170.98   13.08
  18   1   2  168.44   12.93
 -18   1  -2  156.61   12.67
  18  -1   2  180.78   13.00
 -19   1  -2  112.37    9.67
 -19  -1  -2  123.82    9.88
 -20  -1  -2   -1.51    1.44
 -20   1  -2   -1.19    1.30
 -21   1  -2   24.69    3.18
 -21  -1  -2   28.68    3.36
  22  -2  -2    6.44    1.32
 -21  -2   2   44.03    4.24
 -21   2   2   42.22    4.38
  20   2  -2   75.90    6.91
  20  -2  -2   76.57    7.02
 -20  -2   2   72.06    6.61
 -20   2   2   74.71    6.81
  20  -2  -2   79.28    6.52
  19  -2  -2    4.20    1.91
 -19   2   2    3.63    1.90
  19   2  -2   -0.36    1.73
 -19  -2   2    6.27    2.21
 -18   2   2  108.17    9.55
 -18  -2   2  103.89    9.57
  18  -2  -2  125.31    9.73
  18   2  -2  109.11    9.58
  18  -2  -2  117.34   10.04
  17  -2  -2  212.93   14.74
  17   2  -2  198.77   13.44
  16  -2  -2    3.04    2.34
  16   2  -2    1.45    1.58
  16   2  -2    0.64    1.04
  16  -2  -2    1.74    1.71
  15  -2  -2   54.38    6.16
  15  -2  -2   35.11    6.07
  15   2  -2   36.54    9.48
  15   2  -2   54.74    5.38
  15  -2  -2   38.35    9.10
  14   2  -2   27.89    7.53
  14   2  -2   38.64    4.52
  14  -2  -2   58.45   10.50
  14  -2  -2   55.88    5.96
  14  -2  -2   39.78    6.03
  13  -2  -2  109.12    9.47
  13  -2  -2  122.23   15.37
  13   2  -2  132.90   15.80
  13  -2  -2  119.25    9.93
  13   2  -2  119.44    8.79
  12  -2  -2  307.77   19.90
 -12  -2   2  331.76   26.63
  12   2  -2  355.77   27.27
  12   2  -2  312.15   18.75
  12  -2  -2  374.31   28.25
  12  -2  -2  301.39   19.43
 -12   2   2  359.75   26.90
  11  -2  -2   47.94    5.33
  11   2  -2   56.67    9.27
 -11   2   2   63.93    9.29
  11  -2  -2   50.26    5.62
 -11  -2   2   58.91    9.12
  11   2  -2   49.32    4.86
  11  -2  -2   80.87   10.93
  10  -2  -2  836.71   52.50
 -10   2   2  850.80   51.50
  10   2  -2  799.64   51.81
 -10  -2   2  988.08   53.33
   9   2  -2 2111.85  109.51
   9  -2  -2 1996.88  109.38
  -9  -2   2 2058.71  108.85
  -9   2   2 1995.65  108.24
   8   2  -2  215.88   17.29
   8  -2  -2  224.12   17.78
  -8  -2   2  223.80   17.50
  -8   2   2  225.00   17.34
  -7   2   2  144.87   12.77
   7  -2  -2  165.54   13.60
  -7  -2   2  153.53   13.16
   7   2  -2  178.91   13.78
   6   2  -2    0.50    1.33
   6   2  -2    0.48    1.49
   6  -2  -2    1.01    1.65
   5  -2  -2   67.24    6.83
   5   2  -2   62.16    6.57
   5   2  -2   65.36    7.01
   4   2  -2  730.31   40.34
   4  -2  -2  726.94   40.41
   4   2  -2  777.08   41.73
   3  -2  -2    1.98    1.28
   3   2  -2    3.08    1.30
   3   2  -2    1.77    1.60
   2  -2  -2  441.25   24.64
   2   2  -2  455.31   24.75
   0  -2   2    0.54    0.78
   0   2   2   -0.19    0.68
   1   2   2  210.17   13.41
   1  -2   2  257.21   13.79
  -1  -2  -2  213.09   13.43
   1  -2   2  231.70   14.78
  -1   2  -2  224.27   13.43
   2  -2   2   39.13    4.10
  -2  -2  -2   36.70    4.89
   2  -2   2   33.10    3.99
   2   2   2   31.10    3.06
  -2   2  -2   33.15    3.73
   2   2   2   31.89    3.73
  -2  -2  -2   32.74    3.80
   3   2   2  428.77   25.26
   3  -2   2  446.96   25.42
  -3  -2  -2  470.86   26.87
   3   2   2  427.69   23.20
   4   2   2  392.37   24.90
   4  -2   2  421.51   25.30
  -4  -2  -2  443.68   26.10
   5  -2   2   35.14    5.27
   5   2   2   42.01    5.57
  -5  -2  -2   36.08    5.30
  -6  -2  -2  570.38   32.83
   6  -2   2  507.08   32.74
   6   2   2  532.58   32.81
   7  -2   2  581.12   35.13
  -7  -2  -2  532.77   33.47
   7   2   2  546.22   34.52
   8   2   2   63.67    8.83
   8  -2   2   74.34    9.50
  -8  -2  -2   62.77    7.78
   9   2   2  116.07   12.96
  -9  -2  -2  108.27   11.05
   9  -2   2  118.25   13.25
 -10  -2  -2  109.45    9.32
 -10  -2  -2  117.94   11.51
  10  -2   2  125.26   14.31
 -10   2  -2  128.39    9.62
  10   2   2  125.76   14.27
  11   2   2   39.58    8.05
  11   2   2   38.92    4.57
 -11  -2  -2   39.58    5.78
  11  -2   2   33.52    4.45
 -11  -2  -2   33.56    4.71
 -11   2  -2   28.93    4.32
 -12   2  -2  432.85   26.46
 -12  -2  -2  414.13   26.51
  12   2   2  456.65   26.05
  12   2   2  421.60   32.81
  12  -2   2  454.56   26.15
  12  -2   2  464.32   34.13
  13  -2   2    2.55    2.41
  13   2   2   -0.40    1.24
  13  -2   2    0.83    1.35
 -13  -2  -2   -0.94    1.62
 -13   2  -2    1.79    1.54
  13   2   2   -1.22    2.31
  14  -2   2   93.91   13.15
  14   2   2   72.50   12.31
  14   2   2   82.52    8.09
 -14   2  -2   84.34    8.43
 -14  -2  -2  103.44    9.12
  14  -2   2   90.94    8.44
  15  -2   2    5.20    2.19
  15  -2   2   13.43    5.08
 -15   2  -2    6.46    2.27
  15   2   2    5.17    3.17
 -15  -2  -2    4.35    2.19
  15   2   2    8.43    2.54
 -16  -2  -2    2.85    1.47
 -16   2  -2    3.98    2.05
 -16  -2  -2    1.85    1.82
  16  -2   2    3.36    1.95
  16   2   2    2.87    1.68
 -17  -2  -2   37.78    4.37
  17   2   2   45.34    5.36
 -17  -2  -2   43.66    5.55
 -17   2  -2   42.06    5.30
 -18   2  -2   47.03    5.47
 -18  -2  -2   48.53    5.44
 -19   2  -2   18.55    3.10
 -19  -2  -2   16.74    2.90
 -20   2  -2   42.92    4.42
 -20  -2  -2   48.90    4.52
  21  -2   2    9.35    1.40
  21  -3  -2    6.56    1.40
  20  -3  -2    4.72    1.41
  20  -3  -2    1.52    0.98
  19  -3  -2    2.85    1.40
  19  -3  -2    5.77    1.79
  18  -3  -2    1.38    1.41
  18  -3  -2    0.36    1.37
  17  -3  -2   20.04    3.82
 -16  -3   2   52.25    5.71
  16  -3  -2   55.05    5.98
 -15  -3   2   13.66    3.00
  15  -3  -2   13.53    3.04
  14   3  -2  395.47   22.80
  14  -3  -2  414.39   25.20
  14  -3  -2  382.38   23.86
  13  -3  -2  177.11   13.59
  13  -3  -2  182.25   14.23
  13   3  -2  173.06   11.56
  13  -3  -2  155.45   12.10
  12  -3  -2   59.19    7.24
  12  -3  -2   73.58    9.02
  12  -3  -2   81.74    7.21
  12  -3  -2   65.95   10.69
  12   3  -2   73.85    6.38
  11  -3  -2   54.84    7.26
  11  -3  -2   53.90    9.19
  11  -3  -2   56.20    6.49
  10  -3  -2   31.54    4.90
  10  -3  -2   46.70    5.86
  10  -3  -2   37.23    7.06
   9   3  -2    0.24    0.87
   9  -3  -2   -0.38    2.09
   9  -3  -2    1.60    1.52
   9  -3  -2    2.51    1.77
   8  -3  -2  125.41   11.56
   8  -3  -2  100.44    8.85
   8  -3  -2  114.36    9.27
   7  -3  -2    9.90    2.81
  -7  -3   2   11.41    2.95
   7   3  -2   19.36    4.37
   6  -3  -2   32.11    4.33
  -6  -3   2   29.02    4.33
   6   3  -2   34.29    5.69
   5   3  -2  198.21   15.85
   4   3  -2   63.33    7.86
   3   3  -2   43.36    6.43
  -2  -3   2   23.25    5.02
  -1  -3   2  142.19   12.73
   0  -3   2  327.46   22.30
   1  -3   2   53.01    6.67
   2   3   2  178.96   12.51
   2  -3   2  195.85   14.46
  -3  -3  -2  153.37   14.04
   3   3   2  156.41   10.69
  -4  -3  -2    2.23    2.16
  -4  -3  -2    3.82    1.21
  -5  -3  -2    3.14    2.71
  -5  -3  -2    3.84    1.69
   6  -3   2   22.95    4.25
  -6  -3  -2   21.51    4.98
  -7  -3  -2   96.72   11.39
   7  -3   2   85.75    7.28
   7  -3   2   87.37    9.43
  -8  -3  -2   34.31    3.81
  -8  -3  -2   34.15    6.51
   8  -3   2   22.25    4.97
   8  -3   2   24.63    4.13
   9  -3   2   12.12    3.44
  -9  -3  -2    7.29    3.17
   9  -3   2    8.00    2.42
 -10  -3  -2    3.63    1.98
  10  -3   2    0.43    1.25
  10  -3   2    1.79    1.96
  11  -3   2    0.98    2.14
  11  -3   2   -0.32    1.34
  11  -3   2    2.18    1.58
 -11  -3  -2    1.77    1.36
  12  -3   2   16.50    2.92
  12  -3   2   13.65    3.14
  13  -3   2   12.41    2.63
 -13  -3  -2    5.51    2.05
  13  -3   2    7.30    2.33
 -14  -3  -2    9.57    2.52
 -15  -3  -2    4.60    1.79
  15  -3   2    6.47    2.26
  16  -3   2   -0.73    1.74
  17  -3   2    3.80    1.74
 -18  -3  -2   12.23    2.06
  18  -3   2   15.43    2.56
  19  -3   2   -0.76    1.16
  20  -3   2    1.69    0.71
  19  -4  -2   17.94    2.42
  19  -4  -2   23.74    2.72
  18  -4  -2   20.79    2.82
  18  -4  -2   12.69    2.47
  17  -4  -2   53.49    5.46
  17  -4  -2   44.48    5.39
  16  -4  -2   10.37    2.46
  16  -4  -2    6.64    2.56
  15  -4  -2   26.59    4.42
  15  -4  -2   20.11    3.77
  14  -4  -2    0.46    1.49
  14  -4  -2    1.05    2.35
 -13  -4   2   37.71    8.02
  13  -4  -2   34.72    5.61
  13  -4  -2   46.88    5.82
  12  -4  -2   -0.58    1.80
  12  -4  -2    0.49    1.70
 -12  -4   2    1.42    1.55
  11  -4  -2    5.78    2.36
  11  -4  -2    1.79    2.07
 -11  -4   2    2.90    3.54
  10  -4  -2    0.59    1.82
 -10  -4   2    0.31    1.34
 -10  -4   2    2.92    2.76
  10  -4  -2    0.92    1.42
   9  -4  -2   14.42    3.46
   9  -4  -2   12.21    2.97
  -9  -4   2    7.49    2.10
   9   4  -2   10.16    2.11
  -8  -4   2   27.43    3.61
   8  -4  -2   18.90    3.67
   8   4  -2   21.14    3.03
  -7  -4   2    1.31    2.04
   7  -4  -2    5.43    1.96
  -7  -4   2    3.81    1.79
   6  -4  -2    0.73    1.33
   6  -4  -2    2.27    1.64
  -6  -4   2   -1.24    2.70
   6   4  -2    0.85    1.32
   6   4  -2    2.18    1.15
   5   4  -2    7.62    3.07
   5  -4  -2    4.51    1.66
   5   4  -2    4.37    1.53
   5  -4  -2    3.41    1.81
  -5  -4   2    1.16    2.55
   5  -4  -2    4.99    1.56
   4  -4  -2    2.42    1.59
   4  -4  -2    1.65    1.30
  -4  -4   2    2.28    1.32
   4  -4  -2    4.11    1.37
  -4  -4   2    1.45    1.37
  -4  -4   2   -1.10    2.39
   4   4  -2    1.72    2.10
   3  -4  -2    3.70    1.46
  -3  -4   2    1.04    2.53
  -3  -4   2    3.98    1.62
   3   4  -2    5.31    2.90
   3  -4  -2    0.77    1.26
  -2  -4   2   10.24    2.20
   2  -4  -2    9.42    2.30
   2  -4  -2    9.20    2.39
  -2  -4   2   11.70    4.15
  -1  -4   2   82.34   10.65
  -1  -4   2   87.54    7.63
   1  -4  -2   83.77    7.46
   1  -4  -2   81.26    7.06
   0  -4   2    5.95    1.91
   0  -4   2    4.32    2.68
   0  -4   2    4.56    1.83
   0  -4  -2    2.80    1.60
   1  -4   2    7.61    2.22
   1  -4   2    6.00    1.77
   1  -4   2    8.99    3.35
   2  -4   2   34.29    4.60
   2  -4   2   30.82    3.80
   3  -4   2   12.63    2.41
  -3  -4  -2   16.08    2.81
   3  -4   2   13.87    2.96
   3  -4   2   11.83    2.51
   4  -4   2   -0.27    1.16
  -4  -4  -2    0.29    0.76
   4  -4   2   -0.35    1.16
  -4  -4  -2   -0.69    1.45
   4  -4   2    0.42    1.31
  -4  -4  -2    3.18    2.83
   5  -4   2   15.02    2.52
   5  -4   2   13.03    2.81
   5  -4   2   15.43    3.25
  -5  -4  -2   24.56    3.58
  -5  -4  -2   21.95    6.04
  -6  -4  -2  139.70   10.13
   6  -4   2  128.29   10.78
   6  -4   2  112.95    8.55
  -6  -4  -2  138.34   15.27
   6  -4   2  125.08   10.00
   7  -4   2    0.48    1.59
  -7  -4  -2    4.98    1.90
   7  -4   2    3.31    1.63
  -7  -4  -2    2.34    2.55
  -8  -4  -2  284.86   17.73
  -8  -4  -2  271.68   24.26
   8  -4   2  261.74   18.84
   8  -4   2  289.21   18.53
   9  -4   2  139.61   12.05
   9  -4   2  145.83   11.65
  -9  -4  -2  150.04   16.57
 -10  -4  -2   48.40    8.37
  10  -4   2   56.15    6.53
  10  -4   2   52.48    6.67
  11  -4   2    7.98    2.80
  11  -4   2    6.36    2.47
  12  -4   2   66.38    7.15
  12  -4   2   55.40    6.58
  13  -4   2   17.17    3.36
  13  -4   2   15.96    3.48
  14  -4   2    2.39    1.85
  14  -4   2    0.34    1.32
  15  -4   2    7.64    2.14
  16  -4   2    0.29    1.05
  17  -4   2   11.05    2.06
  18  -4   2   35.29    3.01
 -18  -4  -2   18.74    2.43
  17  -5  -2    7.44    1.56
  16  -5  -2   90.79    7.35
  15  -5  -2    1.03    1.40
  14  -5  -2   73.36    6.89
  14  -5  -2   75.80    7.48
  13  -5  -2   56.50    6.19
  13  -5  -2   58.48    6.89
  12  -5  -2   10.64    3.26
  12  -5  -2    7.92    2.53
  11  -5  -2  144.44   11.28
 -11  -5   2  123.01    9.44
  11  -5  -2  126.22   11.69
 -10  -5   2   79.11    7.49
  10  -5  -2  107.11    9.14
  10  -5  -2   89.55    9.77
   9  -5  -2   93.32    8.81
  -9  -5   2   93.78    8.14
   8   5  -2  274.90   16.75
  -8  -5   2  277.89   17.74
  -8  -5   2  279.45   27.02
  -7  -5   2    5.77    2.07
   7  -5  -2    3.97    2.49
   7   5  -2    3.74    1.52
   6   5  -2  142.26    9.94
   6   5  -2  146.22   14.72
  -6  -5   2  143.26   17.65
   6  -5  -2  149.95   12.33
   6  -5  -2  111.45    9.50
  -6  -5   2  157.93   11.16
   5   5  -2  192.52   18.52
  -5  -5   2  231.68   15.12
  -5  -5   2  186.74   21.18
   5  -5  -2  188.85   13.93
   5  -5  -2  229.78   16.33
   5   5  -2  241.65   14.33
   4   5  -2   50.49    8.52
   4  -5  -2   56.80    6.12
   4  -5  -2   57.29    6.89
  -4  -5   2   68.53    6.78
   4   5  -2   59.02    5.77
  -4  -5   2   54.80   10.40
   3  -5  -2  283.31   18.42
  -3  -5   2  292.52   19.19
   3  -5  -2  290.36   19.51
  -3  -5   2  273.81   25.45
   3   5  -2  288.60   24.04
  -3  -5   2  302.32   18.92
   2  -5  -2   36.10    4.98
  -2  -5   2   43.91    8.51
   2  -5  -2   35.18    5.08
   2   5  -2   42.82    8.07
   1  -5  -2   61.72    6.56
   1  -5  -2   59.58    6.56
   1   5  -2   43.65    8.77
   0  -5  -2  170.67   12.59
   0  -5   2  160.22   12.88
   0  -5  -2  164.98   12.40
  -1  -5  -2   17.30    3.24
  -1  -5  -2   12.31    3.11
   1  -5   2   12.96    3.30
  -2  -5  -2   97.44    8.77
   2  -5   2  128.67   10.54
  -3  -5  -2   20.97    3.66
   3  -5   2   33.47    5.08
  -3  -5  -2   32.40    4.69
  -4  -5  -2   82.23    8.03
   4  -5   2   73.62    8.24
   4  -5   2   86.89    7.58
  -5  -5  -2  174.66   12.41
   5  -5   2  157.19   12.87
   5  -5   2  144.50   11.07
   6  -5   2   28.74    3.76
  -6  -5  -2   27.88    4.35
  -6   5  -2   25.64    4.11
   6  -5   2   27.86    4.83
  -7   5  -2   98.33    9.59
   7  -5   2  118.48   11.07
  -8   5  -2  151.04   12.25
   8  -5   2  162.40   13.27
   9  -5   2   13.08    3.29
   9  -5   2   12.69    3.42
  10  -5   2   81.52    8.05
  10  -5   2   75.61    8.17
  11  -5   2  155.96   11.84
  11  -5   2  137.15   11.41
  12  -5   2    5.68    1.95
  12  -5   2    3.85    1.98
  13  -5   2  112.51    8.01
 -13   5  -2   79.18    7.99
  14  -5   2   43.19    3.94
 -14   5  -2   30.11    4.26
 -15   5  -2    2.76    1.23
 -16   5  -2    5.91    1.66
 -16  -5  -2   39.68    3.25
  14  -6  -2   36.59    3.73
  13  -6  -2   42.92    4.60
  12  -6  -2  203.00   13.61
  11  -6  -2   12.62    2.87
 -10  -6   2  199.94   12.73
  -9  -6   2  112.18    8.71
   8  -6  -2   30.68    4.87
  -8  -6   2   22.60    3.60
  -7  -6   2  330.19   20.76
   7  -6  -2  353.22   22.29
   6   6  -2  223.44   14.32
  -6  -6   2  258.62   16.32
   6  -6  -2  263.30   17.36
  -5  -6   2   37.80    5.07
   5  -6  -2   42.37    5.60
   5   6  -2   37.66    4.11
   4   6  -2  557.60   31.14
   4  -6  -2  610.09   33.66
  -4  -6   2  633.96   33.20
   4  -6  -2  516.42   31.41
  -3  -6   2   64.91    6.86
   3   6  -2   59.72    5.67
   3  -6  -2   63.11    6.82
   3  -6  -2   55.95    6.09
   2  -6  -2   74.89    7.49
   2  -6  -2   70.96    7.19
   2   6  -2   72.70    6.57
   1  -6  -2   79.71    7.84
  -1  -6   2   88.15    8.20
   1  -6  -2   94.84    8.43
   1   6  -2   83.82    7.35
   0  -6   2   10.34    2.93
   0  -6  -2   11.86    3.07
   0  -6  -2    7.94    2.38
  -1  -6  -2  354.67   21.68
   1  -6   2  330.00   20.98
  -1  -6  -2  325.72   20.63
   1  -6   2  342.64   21.79
   2  -6   2   27.64    4.25
   2  -6   2   29.24    4.83
   3  -6   2  276.84   18.21
   3  -6   2  324.18   20.11
  -4  -6  -2  320.28   19.26
   4  -6   2  325.61   20.04
   5  -6   2   51.34    5.35
   5  -6   2   68.58    7.38
  -5  -6  -2   70.95    6.81
   6  -6   2  108.65    9.91
   7  -6   2  204.37   14.89
   8  -6   2    0.84    1.45
   9  -6   2  124.26    9.86
  10  -6   2   57.37    5.76
  11  -6   2   28.99    3.42
 -12  -6  -2   92.32    6.68
  12  -6   2   80.78    5.98
 -13  -6  -2    3.93    1.22
  10  -7  -2   71.36    5.18
   9  -7  -2   40.36    3.87
   8  -7  -2  191.30   12.07
   7  -7  -2   32.56    3.70
  -7  -7   2   26.25    3.33
  -6  -7   2   57.64    5.27
   6  -7  -2   54.95    5.31
  -5  -7   2   94.29    7.72
   5  -7  -2  107.68    7.87
   4  -7  -2    2.35    1.24
  -4  -7   2    1.60    1.37
   3  -7  -2  119.60    8.67
  -1  -7   2   14.90    2.81
   1   7  -2   11.95    1.89
   0   7  -2  263.84   15.27
   0  -7   2  277.88   16.47
   1  -7   2   81.67    6.77
  -1   7  -2   80.50    6.01
   2  -7   2   96.84    7.66
  -2   7  -2  112.26    7.47
  -3   7  -2  138.47    9.06
  -4   7  -2    2.36    1.10
  -5   7  -2  136.01    8.91
  -6   7  -2  122.86    8.13
  -7   7  -2   31.00    3.18
  -8   7  -2  109.55    7.03
 -23   0   3   -0.90    0.90
  22   0  -3   -1.11    1.61
 -22   0   3    0.27    0.98
  21   0  -3    0.64    0.95
 -21   0   3   -0.35    1.33
  21   0  -3    0.36    1.31
  20   0  -3    1.29    1.63
  20   0  -3    0.29    0.89
  19   0  -3    2.90    1.75
  19   0  -3    1.03    1.25
  17   0  -3    3.35    3.17
  16   0  -3    1.63    2.51
  16   0  -3    0.40    1.46
  15   0  -3    1.15    1.72
  15   0  -3   -1.53    3.74
  14   0  -3   -1.41    2.18
  14   0  -3    0.35    1.34
  13   0  -3    2.58    1.37
  13   0  -3    1.28    3.13
  12   0  -3    0.29    1.09
  12   0  -3    6.93    3.78
  11   0  -3   -1.03    2.52
  10   0  -3    1.85    2.47
   9   0  -3   -1.61    2.32
   8   0  -3    2.79    2.29
   7   0  -3    0.61    1.48
   6   0  -3    0.53    2.09
   5   0  -3   -0.47    1.91
   4   0  -3    0.42    1.83
   3   0  -3    1.14    1.85
   2   0  -3    1.06    1.49
   1   0  -3   -0.17    0.88
   1   0  -3   -0.69    1.64
   0   0  -3    1.69    0.99
   1   0   3    0.34    1.42
   2   0   3   -0.37    1.56
   3   0   3   -0.84    1.58
   4   0   3    0.97    1.90
   5   0   3    1.68    1.94
   6   0   3   -0.65    1.88
   7   0   3    0.75    1.64
   8   0   3    0.87    2.12
   9   0   3    0.99    2.40
 -10   0  -3    1.56    1.35
  10   0   3    1.10    2.41
 -11   0  -3    1.72    1.41
  11   0   3   -1.22    2.31
 -12   0  -3    0.47    1.45
  12   0   3   -1.36    2.09
 -13   0  -3   -0.50    1.55
  13   0   3   -1.45    2.24
  14   0   3    0.47    1.99
 -14   0  -3   -0.53    1.90
  15   0   3    1.50    2.84
  15   0   3   -0.97    2.05
 -15   0  -3   -0.53    1.54
  16   0   3    1.47    2.27
  16   0   3    0.95    1.88
 -16   0  -3    0.52    1.89
  17   0   3   -1.35    1.77
 -17   0  -3    0.49    1.69
  18   0   3    0.81    1.40
 -18   0  -3   -0.43    1.77
 -19   0  -3    0.73    1.54
  19   0   3    0.34    1.29
 -20   0  -3    0.28    1.19
 -21   0  -3   -0.24    0.59
 -21   0  -3    0.19    0.81
 -23  -1   3    0.84    0.75
 -23   1   3    1.56    0.81
  23  -1  -3    2.79    0.83
 -22  -1   3    6.20    1.82
 -22   1   3    7.65    1.91
  21   1  -3   14.32    2.81
  21  -1  -3   14.39    2.83
  21  -1  -3   11.78    2.22
 -21  -1   3   12.21    2.77
 -21   1   3   16.02    2.94
  20  -1  -3    4.09    2.01
  20   1  -3    5.04    1.62
  20  -1  -3    4.77    1.67
  20   1  -3    5.17    2.05
  19   1  -3    0.45    1.71
  19  -1  -3    0.47    1.90
  19  -1  -3    3.22    1.66
  18  -1  -3   11.56    3.33
  18   1  -3    8.31    2.82
  18   1  -3   11.21    2.95
  18  -1  -3   11.58    2.94
  17   1  -3   92.49   15.10
  17  -1  -3   83.51    7.93
  17   1  -3   72.97    7.33
  17  -1  -3   80.11   14.28
  16  -1  -3   -1.63    3.56
 -16   1   3    2.94    2.27
  16  -1  -3    3.40    1.85
 -16  -1   3    1.49    3.64
  16   1  -3    3.74    1.92
  16   1  -3    1.59    3.46
  15  -1  -3   45.02   10.07
 -15   1   3   42.02    9.25
  15   1  -3   39.25    8.94
  15   1  -3   39.45    4.88
 -15  -1   3   38.42    8.87
  14   1  -3   87.18   13.81
  14  -1  -3   92.47   14.33
  14   1  -3   89.34    7.61
 -14  -1   3   89.08   13.20
 -14   1   3   86.30   13.00
 -13  -1   3   -1.20    2.27
  13   1  -3   -1.29    2.43
  13  -1  -3    1.32    2.04
  13   1  -3    0.91    1.24
  13  -1  -3    0.28    1.03
 -13   1   3    1.18    2.23
  13  -1  -3    2.18    1.54
  12  -1  -3    1.32    1.14
  12  -1  -3    2.38    3.19
 -12   1   3    1.07    2.86
  12   1  -3    3.49    2.84
 -12  -1   3    3.27    2.92
  12   1  -3    2.49    1.32
 -11  -1   3   67.67    9.79
 -11   1   3   66.42    9.64
  11  -1  -3   88.71   11.72
  11   1  -3   69.98   10.41
  10  -1  -3   29.43    6.44
  10   1  -3   25.08    5.89
   9  -1  -3  116.35   12.72
   9   1  -3  129.18   12.99
   8  -1  -3   -0.73    2.24
   8   1  -3    2.12    2.32
   7   1  -3  400.80   26.06
   7  -1  -3  383.62   25.88
   6  -1  -3  123.01   11.13
   6   1  -3  127.06   11.29
   5  -1  -3  436.09   26.89
   5   1  -3  433.58   26.66
   4  -1  -3   74.10    7.35
   4   1  -3   67.10    6.55
   4   1  -3   69.72    7.13
   3  -1  -3  117.64    9.88
   3   1  -3  135.97   10.20
   2  -1  -3   11.29    3.00
   2   1  -3   10.82    2.61
   1  -1  -3  599.69   33.47
   1   1  -3  595.91   33.54
   0   1  -3   43.89    4.73
  -1   1  -3   28.69    3.80
  -1  -1  -3   19.47    3.37
   1  -1   3   19.85    3.31
   1   1   3   21.05    3.48
   2  -1   3  307.30   19.21
   2  -1   3  307.61   16.28
   2   1   3  295.27   19.07
   3  -1   3   63.46    6.73
   3   1   3   65.31    6.95
   4   1   3  392.25   24.60
   4  -1   3  390.93   24.70
   5  -1   3 1541.65   80.29
  -5  -1  -3 1471.36   76.19
   5   1   3 1498.73   80.02
   6   1   3   31.06    5.84
   6  -1   3   31.42    5.90
  -7  -1  -3  276.63   16.73
   7  -1   3  316.52   22.33
   7   1   3  248.94   20.77
  -8  -1  -3  397.93   23.87
   8   1   3  497.51   31.53
   8  -1   3  471.11   31.27
   9  -1   3  138.63   15.76
   9   1   3  187.95   17.48
  10  -1   3  139.26   15.76
  10   1   3  143.97   16.12
 -10   1  -3  124.99   10.28
 -10  -1  -3  132.03   10.47
  11   1   3   46.24    9.34
 -11  -1  -3   53.10    6.11
  11  -1   3   54.37    9.94
 -11   1  -3   49.07    5.86
 -12   1  -3   93.31    8.56
  12  -1   3   83.73   13.21
 -12  -1  -3   68.93    7.73
  12   1   3   98.59   13.92
  13  -1   3   70.64   12.46
 -13  -1  -3   70.25    7.63
 -13   1  -3   69.25    7.70
  13   1   3   69.71   12.60
  14   1   3    5.71    4.41
 -14   1  -3    2.55    2.09
  14   1   3    2.77    2.08
  14  -1   3    6.08    2.56
  14  -1   3   11.63    5.02
 -14  -1  -3    1.57    2.07
  15  -1   3   98.73   15.30
 -15   1  -3  104.21    9.81
  15  -1   3   94.78    9.43
 -15  -1  -3   95.45    9.66
  15   1   3  116.92    9.92
  15   1   3   96.95   14.72
  16   1   3   26.42    4.62
 -16  -1  -3   25.95    4.67
 -16   1  -3   29.28    4.85
  16  -1   3   28.07    4.58
  17  -1   3   31.36    4.80
  17   1   3   28.45    4.63
 -17  -1  -3   35.63    5.09
 -17   1  -3   31.15    4.99
  18   1   3   52.20    5.89
 -18  -1  -3   48.47    5.88
 -18   1  -3   45.07    5.81
  18  -1   3   51.97    5.87
 -19  -1  -3   92.05    7.64
 -19   1  -3   89.48    7.46
 -20  -1  -3    0.50    0.98
 -20   1  -3    0.99    1.17
 -21   1  -3   19.78    2.33
 -21  -1  -3   18.81    2.28
  22  -2  -3   15.76    2.09
 -21   2   3   58.50    5.56
 -21  -2   3   57.18    5.31
  21  -2  -3   61.66    5.31
 -20  -2   3    1.50    1.27
  20   2  -3   -0.30    1.14
  20  -2  -3    2.54    1.43
 -20   2   3   -0.30    1.18
 -19   2   3   50.85    5.82
  19  -2  -3   60.75    6.08
 -19  -2   3   45.98    5.67
  19   2  -3   64.81    6.36
  19  -2  -3   49.61    6.04
  18   2  -3  108.43    8.56
  18  -2  -3  121.59    9.67
  18  -2  -3  111.99    9.78
  18   2  -3   98.85    9.37
  17  -2  -3    3.77    1.93
  17   2  -3    1.66    1.70
  17  -2  -3    2.18    1.79
  17   2  -3    0.45    1.62
  16  -2  -3  197.62   23.14
  16  -2  -3  219.09   15.29
  16   2  -3  218.01   15.03
  16   2  -3  214.41   13.79
  16  -2  -3  165.11   13.97
  16  -2  -3  224.88   15.04
  15   2  -3   39.65    9.02
  15  -2  -3   60.07   11.08
  15  -2  -3   50.07    6.35
  15  -2  -3   58.09    6.48
  15   2  -3   57.34    5.79
 -14  -2   3   98.72   13.80
  14   2  -3   93.88   13.80
  14  -2  -3   85.25    8.21
  14  -2  -3   76.93    8.18
  14  -2  -3  108.48   15.15
  14   2  -3   98.22    7.88
 -14   2   3  104.57   13.78
 -13  -2   3  391.06   31.85
 -13   2   3  416.80   32.19
  13   2  -3  429.86   33.67
  13  -2  -3  411.67   24.81
  13  -2  -3  436.49   25.61
  13   2  -3  424.81   24.19
  13  -2  -3  393.60   33.17
 -12  -2   3  100.93   12.74
 -12   2   3   95.46   12.53
  12   2  -3   93.68    7.68
  12   2  -3   90.62   12.83
  12  -2  -3  106.64   13.95
  12  -2  -3   95.89    8.51
  12  -2  -3   96.83    8.29
 -11   2   3  151.39   15.08
  11  -2  -3  121.79   14.98
  11  -2  -3  128.75    9.78
  11  -2  -3  130.50   10.23
  11   2  -3  147.68   15.69
  11   2  -3  127.17    9.26
 -11  -2   3  123.27   14.12
 -10   2   3   98.58   11.12
  10  -2  -3   71.44    6.97
  10   2  -3   98.12   11.81
  10  -2  -3   77.44   10.71
 -10  -2   3   89.72   11.01
   9   2  -3   18.76    4.71
   9  -2  -3   15.09    4.90
  -9  -2   3   19.01    4.87
  -9   2   3   11.46    3.98
   8   2  -3    6.71    3.06
   8  -2  -3    6.20    2.95
   7   2  -3  192.91   11.14
   7  -2  -3  158.18   10.79
   7   2  -3  194.71   15.43
   7  -2  -3  174.91   14.96
   6  -2  -3  320.62   21.80
   6   2  -3  326.14   21.65
   6   2  -3  301.02   21.20
   5  -2  -3 1040.17   58.30
   5   2  -3 1023.90   58.03
   5   2  -3 1161.41   59.18
   4   2  -3   12.05    2.93
   4  -2  -3   14.52    3.14
   4   2  -3   13.31    3.23
   3  -2  -3  487.49   30.55
   3   2  -3  546.96   30.95
   2  -2  -3 1625.34   90.39
   2   2  -3 1932.86   91.20
   0  -2   3 2682.48  129.44
   0   2   3 2454.42  129.25
  -1   2  -3 1216.04   55.49
  -1  -2  -3 1117.43   55.26
   1  -2   3 1248.55   55.60
   1   2   3 1089.24   55.04
   1  -2   3 1186.73   55.41
  -2   2  -3    9.66    2.49
   2  -2   3   15.53    3.00
   2  -2   3   10.92    2.28
   2   2   3   12.57    2.65
  -2  -2  -3    9.44    2.60
   3  -2   3 1069.92   54.36
   3   2   3  940.18   53.66
  -3   2  -3  985.45   53.84
  -3  -2  -3  994.79   54.18
   4  -2   3 1379.03   73.71
  -4  -2  -3 1392.93   73.31
   4   2   3 1362.18   73.52
  -5  -2  -3   84.43    8.44
   5  -2   3   84.49    9.12
   5   2   3   89.01    9.23
   6   2   3  663.40   41.71
   6  -2   3  730.87   42.58
  -6  -2  -3  701.78   40.32
   7   2   3  113.35   11.81
  -7  -2  -3   95.00    9.58
   7  -2   3  106.02   11.62
   8  -2   3  256.68   21.93
   8   2   3  312.51   23.12
  -8  -2  -3  254.43   18.76
   9  -2   3  743.42   44.34
  -9  -2  -3  638.53   38.34
   9   2   3  609.78   42.37
  10  -2   3   16.75    5.27
 -10  -2  -3   22.05    3.74
 -10   2  -3   18.41    3.49
  11  -2   3  288.76   24.79
 -11   2  -3  258.70   17.15
 -11  -2  -3  237.81   16.94
  11   2   3  254.95   23.85
 -12   2  -3  333.17   21.60
 -12  -2  -3  329.89   21.83
  12   2   3  336.06   21.07
  12   2   3  346.47   29.28
  12  -2   3  361.33   21.54
  13   2   3   44.59    8.63
 -13  -2  -3   36.47    5.24
 -13   2  -3   34.29    4.99
  13  -2   3   37.71    5.04
  13  -2   3   38.28    8.33
  13   2   3   29.83    4.51
  14   2   3  326.81   29.98
 -14  -2  -3  391.19   23.02
 -14  -2  -3  362.69   23.72
  14   2   3  392.97   23.42
  14  -2   3  391.38   23.54
 -14   2  -3  352.75   23.40
  14  -2   3  378.29   31.63
  15   2   3  133.91   11.57
 -15  -2  -3  166.37   12.72
  15  -2   3  152.31   11.93
 -15  -2  -3  163.32   11.63
 -15   2  -3  162.09   12.45
 -16  -2  -3  138.10   11.10
 -16   2  -3  130.68   10.86
  16   2   3  142.21   10.92
  16  -2   3  138.52   10.93
 -16  -2  -3  130.63    9.96
  17  -2   3  179.96   12.59
  17   2   3  165.87   12.29
 -17  -2  -3  197.73   13.11
 -17   2  -3  159.90   12.31
 -17  -2  -3  170.41   11.53
 -18   2  -3    0.61    1.05
  18  -2   3    2.31    1.40
 -18  -2  -3   -0.63    1.24
 -19  -2  -3   67.24    5.90
 -19   2  -3   65.47    5.90
  20  -2   3   46.19    3.40
 -20   2  -3   31.72    3.32
  21  -3  -3   -0.14    0.69
  20  -3  -3   64.02    5.75
  20  -3  -3   83.18    6.04
  19  -3  -3   68.77    6.53
  19  -3  -3   74.10    6.36
  18  -3  -3    9.01    2.43
  18  -3  -3    9.30    2.61
  17  -3  -3  484.97   28.07
  17   3  -3  477.58   26.73
  16  -3  -3   55.05    6.44
  16   3  -3   87.30    6.80
  15  -3  -3   47.45    5.79
  15  -3  -3   68.39    7.20
  15   3  -3   59.09    5.65
  14  -3  -3  219.62   16.24
  14   3  -3  272.83   16.03
  14  -3  -3  250.78   18.04
  14  -3  -3  251.94   17.69
  13  -3  -3  211.35   15.09
  13  -3  -3  226.90   15.57
  13   3  -3  202.81   13.16
  12  -3  -3  354.23   22.75
  12  -3  -3  390.33   24.41
  12  -3  -3  423.24   24.38
  12  -3  -3  324.49   29.23
  12   3  -3  396.13   22.63
 -11  -3   3  285.45   23.27
  11  -3  -3  263.39   17.75
  11  -3  -3  330.41   19.60
  11  -3  -3  286.94   24.83
  11  -3  -3  298.84   19.66
 -10  -3   3  262.17   21.44
  10  -3  -3  269.64   22.70
  10  -3  -3  283.93   18.16
   9  -3  -3  665.13   45.67
  -9  -3   3  675.08   44.68
   9   3  -3  793.18   40.50
   9  -3  -3  810.60   41.96
   8  -3  -3  207.57   17.46
   8  -3  -3  241.95   15.13
  -8  -3   3  204.31   16.88
   8   3  -3  242.97   13.98
   8  -3  -3  207.14   14.09
   8  -3  -3  217.60   15.08
  -7  -3   3  264.27   18.70
   7  -3  -3  234.92   18.77
  -6  -3   3  949.54   51.57
   6  -3  -3  823.68   51.34
  -5  -3   3    1.56    1.21
   5  -3  -3    2.46    1.10
   5   3  -3    0.72    1.92
   4   3  -3 1103.43   62.34
   3   3  -3  360.70   25.22
  -1  -3   3 2904.58  150.07
   0  -3   3  561.17   34.17
   1  -3   3  438.16   27.55
   2  -3   3 1730.11   90.81
  -3  -3  -3  345.30   21.02
   4  -3   3  921.91   49.41
  -4  -3  -3  866.13   48.88
  -5  -3  -3  880.03   52.41
  -5  -3  -3  990.08   55.79
   5  -3   3  998.75   53.24
  -6  -3  -3   54.63    5.30
   6  -3   3   59.90    5.46
  -6  -3  -3   61.50    8.51
   6  -3   3   49.61    6.78
  -6  -3  -3   42.70    6.47
   7  -3   3  453.28   26.00
  -7  -3  -3  482.79   31.53
   7  -3   3  465.24   26.60
  -7  -3  -3  448.78   25.38
   7  -3   3  420.29   29.74
  -8  -3  -3  664.61   39.50
   8  -3   3  587.86   38.75
  -8  -3  -3  582.38   32.93
   8  -3   3  617.74   33.76
   8  -3   3  592.71   34.04
   9  -3   3  143.90   11.95
   9  -3   3  172.37   12.23
  -9  -3  -3  166.34   11.46
   9  -3   3  175.80   16.51
  10  -3   3 1143.31   60.79
  10  -3   3 1131.36   60.54
 -10  -3  -3 1077.20   59.59
  10  -3   3 1203.38   59.61
  10  -3   3 1111.46   66.85
 -11  -3  -3    6.56    2.01
  11  -3   3    4.92    1.78
  11  -3   3    5.34    2.14
 -12  -3  -3  410.94   23.91
 -12  -3  -3  378.89   24.29
  12  -3   3  421.21   24.00
  12  -3   3  417.72   25.12
 -13  -3  -3  327.48   19.54
  13  -3   3  356.28   21.07
 -13  -3  -3  298.73   20.03
  13  -3   3  317.32   19.82
 -14  -3  -3    6.95    2.18
  14  -3   3   11.99    2.63
 -14  -3  -3   10.90    2.28
  15  -3   3  199.22   13.83
  16  -3   3  180.34   12.33
 -17  -3  -3    9.29    2.12
  17  -3   3   14.42    2.55
  18  -3   3  116.29    7.17
 -18  -3  -3   79.67    6.20
  19  -3   3   23.59    2.41
  19  -4  -3   26.18    3.24
  19  -4  -3   34.31    3.24
  18  -4  -3  370.36   20.99
  18  -4  -3  370.28   21.63
  17  -4  -3   64.32    6.55
  17  -4  -3   58.80    5.79
  16  -4  -3  176.22   13.40
  16  -4  -3  184.47   12.76
  15  -4  -3  106.43    9.30
  15  -4  -3  118.28   10.39
  14   4  -3   -0.53    1.36
  14  -4  -3    0.87    1.51
  14  -4  -3    0.54    1.65
 -13  -4   3  310.39   27.55
  13  -4  -3  307.99   20.01
  13   4  -3  291.88   18.12
  13  -4  -3  312.86   21.13
 -12  -4   3  242.41   24.40
  12  -4  -3  251.22   18.31
  12   4  -3  251.79   15.70
  12  -4  -3  236.95   17.00
  11  -4  -3  250.30   18.70
  11  -4  -3  263.83   17.57
 -11  -4   3  233.14   24.59
  10  -4  -3  382.90   23.78
  10  -4  -3  397.75   25.74
 -10  -4   3  377.79   22.27
   9   4  -3   23.82    3.32
  -9  -4   3   18.76    3.22
   9  -4  -3   19.69    3.57
   8  -4  -3  437.29   26.79
   8   4  -3  454.46   25.87
   8  -4  -3  459.40   28.19
  -8  -4   3  468.46   26.22
  -8  -4   3  472.12   36.79
   7  -4  -3  696.96   38.52
   7   4  -3  704.25   43.40
   7   4  -3  670.62   35.80
  -7  -4   3  764.40   48.05
   7  -4  -3  614.58   37.40
   7  -4  -3  607.16   36.37
   6   4  -3  187.14   17.15
   6   4  -3  183.14   11.89
   6  -4  -3  174.01   14.45
   6  -4  -3  179.56   13.24
  -6  -4   3  210.24   20.08
   6  -4  -3  177.05   12.41
  -6  -4   3  152.65   11.52
   5   4  -3 1320.86   72.70
   5  -4  -3 1158.40   64.46
   5  -4  -3 1333.62   66.92
   5   4  -3 1278.88   65.08
   5  -4  -3 1224.43   65.42
   5  -4  -3 1290.36   66.65
  -5  -4   3 1358.96   75.92
  -5  -4   3 1251.90   65.03
   4  -4  -3  322.43   20.07
   4  -4  -3  352.58   21.84
   4  -4  -3  366.01   21.65
   4   4  -3  364.65   26.70
  -4  -4   3  349.65   27.73
  -4  -4   3  340.20   20.25
   3  -4  -3  147.83   11.08
  -3  -4   3  129.30   14.89
   3  -4  -3  153.49   10.57
   3   4  -3  158.04   15.71
  -3  -4   3  146.28   10.99
   3  -4  -3  127.22   11.52
  -3  -4   3  152.00   10.46
  -2  -4   3  947.83   52.32
  -2  -4   3 1035.27   60.27
   2  -4  -3  987.33   52.67
  -2  -4   3 1067.08   53.69
   2  -4  -3  980.52   53.12
   2  -4  -3  987.27   52.23
   2   4  -3 1084.09   61.14
   1  -4  -3   46.34    4.91
  -1  -4   3   66.09    6.26
   1  -4  -3   55.89    5.66
   1  -4  -3   55.91    5.77
  -1  -4   3   55.79    8.53
   0  -4  -3  925.71   47.55
   0  -4   3  866.41   52.73
   0  -4   3  877.56   46.98
   0  -4   3  965.73   48.26
   0  -4  -3  807.03   46.91
   1  -4   3  338.09   20.45
   1  -4   3  332.42   19.57
  -1   4  -3  323.49   19.67
   1  -4   3  293.66   23.38
   2  -4   3   56.06    5.94
   2  -4   3   51.85    5.25
  -2  -4  -3   53.13    4.97
  -2   4  -3   45.79    5.32
   3  -4   3 1102.58   59.19
  -3  -4  -3 1230.74   60.33
  -3   4  -3 1107.33   60.17
  -3  -4  -3 1073.30   58.71
   3  -4   3 1227.57   60.94
   4  -4   3  598.19   33.29
  -4  -4  -3  625.40   33.60
   4  -4   3  553.10   33.74
   4  -4   3  595.41   32.55
  -5  -4  -3  567.69   29.14
   5  -4   3  461.87   29.13
   5  -4   3  473.23   27.54
   5  -4   3  499.31   28.73
  -6  -4  -3  784.41   39.89
   6  -4   3  698.50   38.28
   6  -4   3  673.08   40.30
   6  -4   3  729.83   39.97
   7  -4   3    2.85    2.21
   7  -4   3    7.06    2.23
   8  -4   3  370.48   23.82
   8  -4   3  380.13   23.36
   9  -4   3  425.09   26.92
   9  -4   3  454.71   26.93
  10  -4   3   47.50    5.91
  10  -4   3   34.05    5.27
  11  -4   3  463.32   29.28
  11  -4   3  558.96   30.71
  12  -4   3  127.67   10.42
  12  -4   3  112.61    9.55
  13  -4   3   87.53    8.13
  14  -4   3  429.33   25.18
  15  -4   3   38.31    4.40
 -16  -4  -3  144.28   10.20
  16  -4   3  156.97   10.08
  17  -4   3  184.36   10.69
 -17  -4  -3  171.38   10.84
 -18   4  -3    1.38    1.03
  17  -5  -3   86.04    6.48
  16  -5  -3   15.17    2.86
  15  -5  -3   60.96    6.28
  14  -5  -3  178.05   13.29
  13  -5  -3   17.77    3.81
  12  -5  -3  111.55   10.78
  12  -5  -3  121.68    9.97
 -11  -5   3   93.87    7.76
  11   5  -3  100.84    7.59
 -10  -5   3    2.92    1.67
  -9  -5   3  129.43    9.60
   9  -5  -3  118.30   11.13
  -8  -5   3  200.13   23.22
  -8  -5   3  251.76   16.11
   8  -5  -3  250.97   17.92
   8   5  -3  235.87   15.22
   7   5  -3   91.51    7.50
  -7  -5   3   85.94    7.93
   7  -5  -3  104.57    9.73
   6   5  -3  379.55   29.80
  -6  -5   3  365.53   32.51
   6   5  -3  387.10   23.25
  -6  -5   3  423.24   24.28
   6  -5  -3  412.58   25.64
  -5  -5   3    0.40    1.46
   5   5  -3    0.34    1.33
   5  -5  -3    0.51    1.48
   5  -5  -3    0.97    1.12
   4   5  -3  102.14   12.91
   4   5  -3  102.43    8.53
   4  -5  -3  107.67    8.93
   4  -5  -3  113.88   10.01
  -4  -5   3  109.25   14.73
   3   5  -3  373.43   21.49
   3  -5  -3  329.39   21.25
   3  -5  -3  359.57   22.49
  -3  -5   3  333.02   28.74
   3   5  -3  334.46   27.63
   2   5  -3    8.23    4.10
  -2  -5   3    5.93    3.71
   2  -5  -3   12.72    3.09
  -2  -5   3   15.21    3.35
   2  -5  -3   15.47    3.36
   1   5  -3  800.11   52.50
   1  -5  -3  808.26   44.05
  -1  -5   3  806.06   44.58
   1  -5  -3  775.21   43.82
   0  -5   3  235.93   14.67
   0  -5  -3  200.99   14.53
   0  -5   3  215.69   15.11
   0  -5  -3  186.19   13.93
   0   5  -3  183.06   19.99
  -1  -5  -3   92.51    8.25
   1  -5   3  102.78    9.33
  -1  -5  -3   97.08    8.89
   1  -5   3  100.87    8.57
   2  -5   3   79.91    7.27
  -2  -5  -3   75.49    7.00
   2  -5   3   83.05    8.41
  -3  -5  -3    1.30    1.95
   3  -5   3    2.46    1.86
  -4  -5  -3  180.63   12.71
  -4   5  -3  144.71   11.61
   4  -5   3  159.36   12.84
  -5  -5  -3   90.48    8.14
   5  -5   3   84.90    8.55
  -5   5  -3   70.71    7.41
   6  -5   3   95.33    8.22
   6  -5   3  113.91   10.27
  -6   5  -3  123.42    9.90
   7  -5   3  345.95   21.97
  -7   5  -3  315.07   21.10
   8  -5   3  100.46    9.75
  -8   5  -3  106.65    9.61
   9  -5   3   66.82    7.18
  -9   5  -3   63.20    7.21
  10  -5   3  235.00   15.63
 -10   5  -3  215.78   16.14
 -11   5  -3   13.47    3.50
  11  -5   3   11.38    2.65
 -12   5  -3   64.64    6.88
  12  -5   3   68.70    6.00
 -13   5  -3  140.78   10.51
 -14   5  -3    0.25    1.09
 -15  -5  -3  183.46    8.80
 -15   5  -3   74.03    7.23
 -16  -5  -3   27.71    2.70
  14  -6  -3   -0.58    0.84
 -11  -6   3   22.47    2.83
 -10  -6   3   45.69    4.75
  10  -6  -3   62.91    6.65
  -9  -6   3    9.65    2.33
   9  -6  -3   12.40    3.28
  -8  -6   3    5.11    1.95
   8  -6  -3    4.99    2.23
  -7  -6   3   56.28    5.65
   7   6  -3   42.86    4.46
   7  -6  -3   50.56    6.16
  -6  -6   3    1.82    1.90
   6   6  -3    1.02    0.93
   6  -6  -3    2.71    1.78
   5   6  -3   37.76    4.23
  -5  -6   3   39.87    4.98
   5  -6  -3   34.52    4.96
  -4  -6   3   17.34    3.52
   4   6  -3   16.08    2.85
   4  -6  -3   19.80    3.74
   3  -6  -3    4.56    1.93
  -3  -6   3    6.86    2.38
   3   6  -3    3.46    1.73
   2   6  -3   20.44    3.32
   2  -6  -3   13.39    2.96
   1  -6  -3    0.37    1.27
   1   6  -3    0.34    1.34
  -1  -6   3    1.23    1.84
   0  -6   3    3.14    1.97
   0  -6  -3    4.82    1.85
   0  -6   3    2.03    1.83
   1  -6   3    3.48    1.89
  -1  -6  -3    2.52    1.29
   1  -6   3    2.26    1.71
   2  -6   3    7.98    2.35
   2  -6   3   11.78    3.20
   3  -6   3   23.37    3.71
   3  -6   3   22.95    4.15
   4  -6   3   54.78    5.62
   4  -6   3   65.83    6.98
   5  -6   3   13.67    2.54
  -5  -6  -3   12.17    2.49
   5  -6   3   17.85    3.56
   6  -6   3   53.49    6.29
   7  -6   3    1.57    1.43
   8  -6   3   42.27    4.99
   9  -6   3   38.10    4.36
  -9  -6  -3   36.67    4.22
 -10  -6  -3   12.28    2.34
  10  -6   3   15.99    2.49
 -11  -6  -3   61.51    4.99
  11  -6   3   43.38    3.89
 -12  -6  -3    8.34    1.60
   9  -7  -3   -0.30    0.62
   8  -7  -3    3.15    1.34
  -7  -7   3    4.14    1.46
   7  -7  -3    4.86    1.40
  -6  -7   3    1.27    1.13
   6  -7  -3    0.64    0.77
  -5  -7   3   38.72    4.35
   5  -7  -3   41.17    4.07
  -4  -7   3   53.90    5.26
   4  -7  -3   51.21    4.70
   3   7  -3   14.95    1.98
   2   7  -3    1.60    0.81
   1   7  -3   17.14    2.24
  -1  -7   3    9.67    2.44
   0  -7   3    7.08    1.87
   0   7  -3    7.62    1.62
   1  -7   3    2.07    1.31
  -1   7  -3    3.66    1.22
  -2   7  -3    1.18    0.96
   2  -7   3    0.20    0.88
  -3   7  -3    0.39    0.98
  -4   7  -3    0.77    0.89
  -5   7  -3   12.41    2.03
  -6   7  -3    0.84    0.80
  -7   7  -3   14.46    1.95
 -23   0   4    1.58    0.96
  22   0  -4  123.85    7.63
  22   0  -4  102.61    8.97
 -22   0   4  115.59    8.68
  21   0  -4   76.66    7.54
  21   0  -4   87.22    6.75
  20   0  -4   32.18    4.75
  20   0  -4   28.78    3.96
  19   0  -4  161.56   12.92
  19   0  -4  157.62   11.75
  18   0  -4   11.95    3.31
  17   0  -4  246.10   17.08
  17   0  -4  200.02   24.04
  17   0  -4  221.70   15.76
  16   0  -4   35.37    4.88
  16   0  -4   23.90    8.27
  15   0  -4   68.04   12.63
  15   0  -4   48.75    5.97
  14   0  -4  939.25   50.67
  14   0  -4  961.35   63.11
  13   0  -4  457.17   36.00
  13   0  -4  447.91   25.94
  12   0  -4  191.83   12.86
  12   0  -4  213.73   20.89
  11   0  -4 1798.11  101.41
  10   0  -4  908.49   55.93
   9   0  -4  755.19   47.30
   8   0  -4 1743.17   95.18
   7   0  -4   61.66    5.14
   7   0  -4   52.51    7.68
   6   0  -4 1140.99   63.55
   5   0  -4  480.68   29.97
   4   0  -4  192.98   14.83
   3   0  -4 2084.79  108.16
   2   0  -4 1874.77   97.62
   1   0  -4  901.52   46.73
   1   0  -4  895.25   49.53
   0   0  -4 2586.56  129.03
   1   0   4  971.75   52.17
  -1   0  -4  944.84   49.06
   2   0   4  871.00   48.39
   3   0   4  419.45   26.46
   4   0   4   65.76    7.81
   5   0   4  191.74   15.96
   6   0   4  150.40   14.16
   7   0   4   12.21    4.19
   8   0   4 1765.89   98.41
   9   0   4  365.73   28.70
  -9   0  -4  353.23   21.96
  10   0   4  439.82   36.11
 -10   0  -4  514.07   29.43
 -11   0  -4  808.44   44.10
  11   0   4  720.55   52.10
 -12   0  -4   43.48    5.87
  12   0   4   46.35    9.73
 -13   0  -4  269.14   18.57
  13   0   4  246.71   25.92
 -14   0  -4  220.44   16.11
  14   0   4  188.20   22.41
  15   0   4   52.40   10.30
 -15   0  -4   53.42    6.93
  15   0   4   58.59    6.81
  16   0   4  165.37   12.90
 -16   0  -4  163.85   13.18
  17   0   4   29.06    4.56
 -17   0  -4   37.56    5.17
 -18   0  -4  111.84    9.59
  18   0   4  122.88    9.72
 -19   0  -4  113.04    8.68
  19   0   4  128.46    9.61
 -19   0  -4  138.42    9.87
 -20   0  -4   -0.32    0.70
 -20   0  -4    0.22    0.80
 -23   1   4   19.95    2.56
 -23  -1   4   16.34    2.22
 -22  -1   4   12.07    2.21
 -22   1   4    7.01    2.03
  21  -1  -4   17.93    3.19
  21  -1  -4   23.30    3.02
 -21  -1   4   16.55    3.02
 -21   1   4   18.43    3.26
  21   1  -4   16.23    2.41
  21   1  -4   14.85    3.11
  20   1  -4   63.39    7.18
  20  -1  -4   73.76    7.59
  20  -1  -4   86.10    7.13
  19   1  -4   -0.45    1.56
  19  -1  -4    0.47    1.69
  19  -1  -4    2.26    1.48
  18   1  -4  278.85   18.64
  18  -1  -4  263.85   17.80
  18  -1  -4  296.27   19.04
  18   1  -4  246.52   17.18
  17  -1  -4  161.70   12.91
 -17  -1   4  134.42   18.06
 -17   1   4  144.99   18.49
  17  -1  -4  110.02   17.57
  17  -1  -4  145.51   11.62
  17   1  -4  115.25   17.73
  17   1  -4  161.67   12.71
  17   1  -4  155.40   11.59
 -16  -1   4   44.70    9.67
  16  -1  -4   58.25   12.23
 -16   1   4   53.03   10.72
  16   1  -4   43.46    6.22
  16  -1  -4   57.87    7.04
  16   1  -4   58.29   11.62
  16   1  -4   53.13    5.98
  15  -1  -4  457.93   37.28
  15   1  -4  456.84   25.18
  15  -1  -4  404.24   24.25
 -15   1   4  378.04   33.09
  15   1  -4  418.23   35.82
 -15  -1   4  362.84   32.94
  14   1  -4   66.30   12.15
  14  -1  -4   72.73   12.68
 -14   1   4   59.66   10.59
  14  -1  -4   64.92    6.29
  14  -1  -4   67.83    6.81
  14   1  -4   54.77    5.98
 -14  -1   4   83.29   12.48
  13  -1  -4  468.89   36.93
 -13   1   4  456.53   35.04
  13   1  -4  519.94   37.64
  13   1  -4  469.20   26.32
 -13  -1   4  425.34   34.26
  13  -1  -4  429.09   25.87
  13  -1  -4  480.13   27.10
  12   1  -4  438.61   32.62
  12  -1  -4  426.97   32.63
  12  -1  -4  349.84   22.05
 -12  -1   4  470.70   32.66
  12   1  -4  383.54   22.36
 -12   1   4  431.27   31.52
  11   1  -4   45.09    8.54
  11  -1  -4   49.68    9.19
  11   1  -4   41.32    4.45
  10  -1  -4  940.11   59.01
  10   1  -4  980.80   58.92
   9   1  -4 1003.66   59.77
   9  -1  -4 1007.14   59.88
   8  -1  -4  132.14   13.01
   8   1  -4  103.19    7.99
   8  -1  -4  114.78    8.21
   8   1  -4  106.82   11.97
   7  -1  -4 1392.29   70.65
   7   1  -4 1351.62   70.48
   7  -1  -4 1419.15   76.81
   7   1  -4 1439.12   76.75
   6   1  -4  819.69   45.86
   6  -1  -4  737.14   45.26
   5  -1  -4  264.33   19.63
   5   1  -4  296.22   20.14
   4  -1  -4 2546.16  131.06
   4   1  -4 2538.50  130.89
   3   1  -4   35.57    5.42
   3   1  -4   37.44    4.86
   3  -1  -4   37.56    5.45
   2   1  -4 1620.87   83.71
   2  -1  -4 1545.45   83.55
   2   1  -4 1597.71   82.56
   1  -1  -4  378.35   24.17
   1   1  -4  398.72   24.53
   0  -1  -4   44.52    5.63
   0   1  -4   52.22    5.92
  -1   1  -4  694.13   38.96
  -1  -1  -4  688.72   39.07
   1  -1   4  718.71   39.11
   1   1   4  640.74   38.72
   2  -1   4 1267.14   67.97
  -2   1  -4 1289.43   68.25
  -2  -1  -4 1286.92   68.38
   2   1   4 1232.37   67.83
   3   1   4  143.07   12.12
   3  -1   4  140.18   12.06
   4  -1   4 2530.51  128.26
   4   1   4 2399.44  127.85
   5  -1   4  132.89   12.90
   5   1   4  158.47   13.77
   6   1   4  559.48   35.83
   6  -1   4  553.15   35.96
   7  -1   4  921.24   58.41
   7   1   4 1083.66   59.77
   8   1   4    1.00    2.18
   8  -1   4    4.03    2.70
  -9   1  -4  595.72   33.24
  -9  -1  -4  580.65   33.20
   9   1   4  596.55   40.73
   9  -1   4  528.29   39.83
 -10   1  -4  113.26    9.56
  10   1   4  107.68   14.46
 -10  -1  -4  108.35    9.53
  10  -1   4  108.74   14.33
 -11   1  -4   23.77    4.00
 -11  -1  -4   23.00    4.07
  11   1   4   22.62    6.75
  11  -1   4   20.15    6.32
  12  -1   4  271.79   26.74
 -12   1  -4  277.60   18.88
 -12  -1  -4  283.05   19.11
  12   1   4  266.31   27.06
 -13   1  -4   95.28    9.66
  13  -1   4   94.93   15.28
 -13  -1  -4  116.49   10.34
  13   1   4   97.22   15.26
 -14   1  -4  141.66   12.99
  14   1   4  170.23   13.48
 -14  -1  -4  194.11   14.33
  14   1   4  173.54   20.88
  14  -1   4  195.46   13.78
  15   1   4  164.84   20.81
  15  -1   4  200.35   14.77
  15   1   4  202.61   14.77
 -15  -1  -4  197.15   15.07
 -15   1  -4  237.71   15.79
  15  -1   4  154.29   20.39
 -16   1  -4   16.50    3.51
 -16  -1  -4   15.96    3.67
  16   1   4   17.36    3.57
  16  -1   4   16.63    3.54
 -17  -1  -4  108.20    8.45
 -17   1  -4   91.30    8.78
 -17  -1  -4   90.45    8.69
  17  -1   4   98.39    8.60
  17   1   4   98.06    8.77
  18   1   4  220.26   14.90
 -18  -1  -4  224.18   14.11
  18  -1   4  228.04   14.97
 -18  -1  -4  230.30   15.20
 -18   1  -4  219.29   14.92
 -19  -1  -4    3.05    1.43
 -19  -1  -4    5.15    1.49
 -19   1  -4    4.36    1.70
  19  -1   4    4.51    1.12
 -20  -1  -4   83.70    5.46
 -20   1  -4   73.29    5.36
  22  -2  -4    5.82    1.21
 -21   2   4   21.17    2.93
 -21  -2   4   16.66    2.67
  21  -2  -4   24.80    3.24
  20  -2  -4    4.76    1.91
  20   2  -4    6.63    1.88
 -20  -2   4    7.26    2.07
 -20   2   4    2.61    1.54
  19   2  -4   92.31    8.42
  19  -2  -4   87.72    8.40
  19  -2  -4   95.07    8.40
  19   2  -4  113.69    8.14
  18  -2  -4    9.20    2.71
  18   2  -4    7.05    2.36
  18   2  -4   12.62    2.52
  18  -2  -4   12.42    2.93
  17   2  -4   21.46    3.51
  17   2  -4   24.40    4.17
  17  -2  -4   18.55    3.99
  17  -2  -4   25.66    4.21
  17  -2  -4   15.00    5.10
  16  -2  -4  116.22   10.52
  16   2  -4  127.95   10.69
  16  -2  -4  116.24   10.16
  16  -2  -4  128.84   10.68
  16  -2  -4  109.34   16.11
  16   2  -4  119.43   15.89
  16   2  -4  119.48    9.58
  15  -2  -4   24.19    3.99
  15   2  -4   27.46    7.34
  15   2  -4   24.53    3.79
 -15   2   4    9.33    4.94
  15   2  -4   17.83    3.71
  15  -2  -4   30.74    4.68
  15  -2  -4   26.06    4.59
  15  -2  -4   15.98    6.61
 -15  -2   4   21.90    7.24
 -14  -2   4  196.85   21.00
 -14   2   4  202.11   21.16
  14  -2  -4  211.71   23.26
  14   2  -4  187.96   22.31
  14  -2  -4  211.37   15.60
  14   2  -4  223.44   15.56
  14  -2  -4  222.46   15.07
  14   2  -4  228.89   14.62
  14  -2  -4  213.55   15.55
  13   2  -4  185.75   20.45
 -13   2   4  183.58   19.02
  13   2  -4  188.54   12.75
  13  -2  -4  191.92   13.89
  13   2  -4  181.10   13.53
  13  -2  -4  167.22   12.78
 -13  -2   4  178.78   18.91
  13  -2  -4  196.17   13.92
  13  -2  -4  191.69   20.99
  12   2  -4   14.46    5.20
 -12   2   4    6.62    3.44
  12  -2  -4   13.60    5.17
 -12  -2   4    5.67    3.95
  12   2  -4    8.18    2.50
  12   2  -4   13.75    2.58
  12  -2  -4   11.42    2.82
  12  -2  -4   10.27    2.50
  12  -2  -4   11.46    2.75
 -11  -2   4  129.39   14.25
  11   2  -4  124.46   14.87
  11  -2  -4  105.70   14.05
 -11   2   4  142.04   14.65
  11   2  -4  124.94    9.59
  11  -2  -4  119.62    9.59
  11   2  -4  108.15    8.87
  11  -2  -4  103.25    8.89
  10   2  -4   68.92   10.27
  10   2  -4   53.44    5.46
  10  -2  -4   54.67    5.60
  10  -2  -4   62.79   10.01
  10  -2  -4   59.92    5.99
  10   2  -4   56.32    5.70
   9  -2  -4   89.79    7.52
   9  -2  -4  107.82   12.64
   9   2  -4   98.55    7.66
   9   2  -4   87.50   11.17
   8   2  -4  660.39   34.31
   8   2  -4  699.32   41.03
   8  -2  -4  665.24   41.00
   8  -2  -4  584.18   34.04
   7   2  -4    1.48    1.80
   7   2  -4    2.33    1.22
   7  -2  -4    0.97    0.99
   7  -2  -4   -0.77    2.37
   6   2  -4  745.43   41.85
   6   2  -4  732.96   41.85
   6  -2  -4  692.51   41.68
   6   2  -4  706.65   36.62
   6  -2  -4  658.10   36.52
   5   2  -4  630.75   36.88
   5  -2  -4  592.82   36.76
   4  -2  -4   48.51    6.46
   4   2  -4   46.41    6.26
   3   2  -4  541.51   32.11
   3  -2  -4  527.77   32.13
   0   2   4 1134.46   62.29
   0  -2   4 1201.72   62.52
  -1   2  -4    3.22    2.07
  -1  -2  -4    1.44    1.66
   1  -2   4    2.78    1.83
   1   2   4    3.29    1.71
   2   2   4 2102.10  105.44
  -2   2  -4 2066.97  105.37
   2  -2   4 2105.10  105.46
   2  -2   4 1869.62  102.27
  -2  -2  -4 2158.74  105.96
  -3   2  -4  996.09   55.21
   3   2   4  981.69   55.09
  -3  -2  -4 1025.27   55.75
   3  -2   4  968.45   55.08
   4   2   4   54.22    6.92
   4  -2   4   47.51    6.78
  -4  -2  -4   35.45    5.93
  -4   2  -4   38.13    5.91
   5  -2   4 1129.80   62.56
   5   2   4 1073.51   61.96
   6   2   4  442.94   30.22
   6  -2   4  440.68   30.22
   7   2   4    0.91    2.22
   7  -2   4   -0.92    2.66
   8  -2   4  319.04   25.27
   8   2   4  280.40   24.18
  -8   2  -4  289.87   18.57
  -8  -2  -4  312.23   18.95
  -8  -2  -4  303.01   18.59
  -9  -2  -4   26.94    3.95
   9  -2   4   29.06    6.79
  -9   2  -4   23.37    3.88
  -9  -2  -4   24.83    4.01
   9   2   4   22.02    6.01
 -10   2  -4  109.99    9.48
  10   2   4   95.58   13.89
 -10  -2  -4   99.94    8.85
  10  -2   4  114.14   14.58
 -10  -2  -4  106.60    9.38
  11   2   4  113.48   15.32
 -11   2  -4  123.32   10.46
 -11  -2  -4  128.05   10.69
 -11  -2  -4  121.44   10.08
  11  -2   4  134.44   16.62
  12   2   4   33.51    8.09
 -12  -2  -4   36.72    4.91
 -12   2  -4   44.38    5.63
 -12  -2  -4   35.22    5.20
  12  -2   4   36.70    8.33
 -13  -2  -4  529.82   31.28
  13  -2   4  536.75   30.62
  13   2   4  521.82   30.38
 -13   2  -4  475.11   30.46
 -13  -2  -4  576.44   30.72
  13   2   4  432.46   37.50
  13  -2   4  497.20   39.34
  14   2   4  160.53   17.88
  14  -2   4  141.23   17.28
  14   2   4  149.27   12.15
 -14   2  -4  164.78   12.95
 -14  -2  -4  177.14   13.38
  14  -2   4  178.09   12.90
 -14  -2  -4  179.08   12.48
  15  -2   4   97.36    8.83
  15   2   4   99.57    8.85
 -15  -2  -4  115.79    8.85
 -15  -2  -4  111.51    9.48
 -15   2  -4   98.76    9.11
 -15  -2  -4   92.14    8.19
 -16  -2  -4   85.77    7.72
 -16   2  -4   77.98    7.33
 -16  -2  -4   65.77    6.25
  16   2   4   71.59    7.20
  16  -2   4   78.44    7.30
 -16  -2  -4   76.49    6.79
 -17  -2  -4    9.18    2.06
 -17   2  -4   10.35    2.52
  17   2   4   10.47    2.43
  17  -2   4   11.12    2.48
 -17  -2  -4   10.74    2.50
  17  -2   4    8.56    1.98
 -18  -2  -4   12.61    2.45
 -18   2  -4   11.73    2.35
  18  -2   4   14.88    2.13
 -19   2  -4   19.22    2.46
 -19  -2  -4   15.95    2.28
 -20   2  -4    0.11    0.55
  21  -3  -4    0.59    0.67
  20  -3  -4   -0.37    0.79
  20  -3  -4    0.24    0.92
  19  -3  -4   -0.50    1.10
  19  -3  -4    0.33    1.07
  18  -3  -4   -0.31    1.30
  18   3  -4    0.24    1.07
  18  -3  -4    0.79    1.56
  17   3  -4    0.57    1.20
  17  -3  -4   -0.35    1.39
  16   3  -4    8.81    2.34
  16  -3  -4    6.37    2.20
  16  -3  -4   10.11    2.47
  16  -3  -4    9.93    2.99
  15   3  -4   23.51    3.58
  15  -3  -4   30.40    7.34
  15  -3  -4   14.34    3.16
  15  -3  -4   21.97    4.19
  14  -3  -4   59.91    6.66
  14  -3  -4   74.65    8.48
  14  -3  -4   72.87    8.02
  14   3  -4   71.58    6.60
  13  -3  -4    3.64    2.58
  13  -3  -4   -0.52    1.26
  13   3  -4    3.93    1.66
  13  -3  -4    2.43    1.60
  12  -3  -4   23.48    4.26
  12  -3  -4   16.52    3.33
  11  -3  -4   59.73    9.44
 -11  -3   4   49.94    8.38
  11  -3  -4   73.79    7.18
  11  -3  -4   53.81    5.95
  11   3  -4   67.27    6.33
 -10  -3   4    6.04    2.49
  10  -3  -4    2.04    1.57
  10  -3  -4    3.78    1.86
  10  -3  -4    1.62    1.65
  10  -3  -4    0.35    1.01
  10   3  -4    0.92    1.06
   9   3  -4   88.14    7.16
   9  -3  -4   96.15    8.15
   9   3  -4   93.87    7.27
   9  -3  -4   80.01   10.84
   9  -3  -4   75.93    7.83
  -9  -3   4   81.20    9.94
   9  -3  -4   86.35    7.30
  -8  -3   4    2.84    1.91
   8  -3  -4    2.42    2.16
   8   3  -4    6.09    1.69
   8  -3  -4    4.31    1.77
  -8  -3   4    3.00    1.22
   8  -3  -4    5.33    1.63
   8   3  -4    4.65    1.56
   7  -3  -4   43.95    6.65
   7   3  -4   62.12    8.68
   7   3  -4   52.45    4.85
   7  -3  -4   44.61    5.29
   7  -3  -4   40.57    5.03
   6  -3  -4    3.69    2.02
   6   3  -4    8.24    3.37
   5  -3  -4  104.31   10.20
   5   3  -4  140.35   13.13
   4   3  -4   35.88    6.34
  -3  -3   4   80.33    7.51
   3   3  -4  102.64   11.01
  -1  -3   4  148.86   13.33
   0  -3   4   17.60    3.96
   1  -3   4  232.57   15.16
   1  -3   4  209.34   16.15
   2  -3   4   32.45    4.93
   2  -3   4   44.19    5.26
   3  -3   4    3.10    1.38
  -3  -3  -4    1.03    1.27
  -4  -3  -4   41.61    6.02
   4  -3   4   51.59    6.44
   5  -3   4   33.87    3.91
  -5  -3  -4   29.89    3.77
  -5  -3  -4   33.99    5.58
   5  -3   4   34.87    5.51
  -6  -3  -4  100.42   11.49
   6  -3   4  126.17    8.47
   6  -3   4  124.78   12.43
   6  -3   4  112.52    8.78
  -6  -3  -4  119.42    8.90
   7  -3   4  349.45   25.22
  -7  -3  -4  326.85   19.77
   7  -3   4  359.69   20.20
   8  -3   4    2.14    1.35
  -8  -3  -4    1.71    1.35
  -8  -3  -4    4.86    2.37
   8  -3   4    2.75    1.74
  -9  -3  -4  537.27   28.59
   9  -3   4  476.08   28.38
 -10  -3  -4   24.52    3.79
  10  -3   4   21.43    3.39
  10  -3   4   25.68    4.03
 -11  -3  -4   26.98    4.21
  11  -3   4   33.89    4.74
  11  -3   4   30.20    4.07
 -11  -3  -4   36.36    4.62
  12  -3   4    6.56    2.20
 -12  -3  -4    1.78    1.61
 -12  -3  -4    3.53    1.72
  12  -3   4    5.03    1.80
 -13  -3  -4   -0.32    1.33
 -13  -3  -4    0.37    0.99
  13  -3   4    2.59    1.50
  13  -3   4    1.93    1.52
 -14  -3  -4    7.09    1.98
  14  -3   4    5.24    1.93
  15  -3   4   -0.30    1.20
 -15  -3  -4   -0.34    1.10
  16  -3   4    0.25    0.82
 -16  -3  -4    0.55    0.99
 -17  -3  -4   11.51    2.06
  17  -3   4   15.01    2.16
  18  -3   4    2.81    0.79
 -19   3  -4    1.81    0.83
  19  -4  -4    3.38    1.33
  18  -4  -4   35.97    4.35
  18  -4  -4   32.19    3.47
  17  -4  -4    4.75    2.06
  17  -4  -4    9.60    2.17
  16   4  -4   11.92    2.13
  16  -4  -4   14.23    3.15
  16  -4  -4   12.51    2.55
  15   4  -4    2.08    1.31
  15  -4  -4    1.95    2.07
  15  -4  -4    1.46    1.50
  14  -4  -4   36.90    5.76
  14  -4  -4   49.02    5.56
  14   4  -4   44.40    4.72
  13  -4  -4   50.62    5.85
  13   4  -4   46.23    5.10
  12  -4  -4    3.90    2.17
  12  -4  -4    3.94    7.99
 -12  -4   4    3.05    2.36
  11  -4  -4   29.48    8.70
  11  -4  -4   22.24    3.89
  11  -4  -4   32.83    5.50
 -10  -4   4   10.25    2.31
  10  -4  -4    8.72    2.88
  10  -4  -4   10.77    2.68
   9   4  -4   15.64    2.84
  -9  -4   4   12.50    2.61
   9  -4  -4   14.84    3.76
   9  -4  -4   12.70    2.98
   8  -4  -4  375.54   24.27
   8  -4  -4  373.89   24.13
   8   4  -4  381.80   22.24
   8  -4  -4  370.22   22.66
   7   4  -4   18.93    5.34
  -7  -4   4   17.71    3.02
   7   4  -4   18.20    3.02
   7  -4  -4   19.69    5.21
   7  -4  -4   20.71    4.03
   7  -4  -4   17.46    3.17
  -6  -4   4  254.60   15.46
   6   4  -4  243.82   21.37
   6   4  -4  247.98   15.45
   6  -4  -4  238.52   17.11
  -6  -4   4  238.14   22.98
   6  -4  -4  231.17   16.38
   6  -4  -4  229.86   15.41
   5   4  -4   29.69    6.46
  -5  -4   4   28.32    3.77
   5  -4  -4   24.95    4.06
   5  -4  -4   26.01    5.33
   5   4  -4   28.19    3.82
  -5  -4   4   30.16    6.97
   4   4  -4   -1.03    1.59
   4  -4  -4    0.40    1.23
   4   4  -4   -0.65    1.23
  -4  -4   4    0.32    1.10
   4  -4  -4    1.79    1.18
   4   4  -4    2.37    1.21
   4  -4  -4    0.38    3.77
  -4  -4   4    1.13    2.13
  -3  -4   4    4.18    1.72
   3   4  -4    3.34    1.53
   3   4  -4    2.10    2.30
   3  -4  -4    2.85    1.62
   3  -4  -4    0.75    1.16
  -3  -4   4    3.15    3.03
   3  -4  -4    1.04    4.55
  -3  -4   4    3.90    1.86
   3  -4  -4    4.57    1.75
   2  -4  -4   10.16    2.42
   2   4  -4    4.30    3.35
   2   4  -4    9.09    2.16
   2  -4  -4    9.17    2.29
   2  -4  -4    9.99    2.51
   2  -4  -4    6.57    4.60
  -2  -4   4    9.08    2.28
  -2  -4   4   12.44    2.69
  -2  -4   4    7.85    3.58
  -1  -4   4   -0.91    1.71
   1  -4  -4    1.24    1.02
   1  -4  -4    0.66    0.95
  -1  -4   4    1.55    1.52
   1   4  -4    0.33    1.19
   1  -4  -4    0.70    1.14
   0  -4   4   20.83    3.33
   0  -4  -4   24.31    3.72
   0  -4  -4   22.97    3.25
   0   4  -4   24.37    3.61
   0  -4   4   18.24    4.65
   0  -4   4   22.28    3.66
  -1   4  -4    8.14    2.24
   1  -4   4    7.01    2.12
   1  -4   4    7.93    2.36
   1  -4   4    8.32    3.00
  -1  -4  -4    5.81    1.83
  -2   4  -4    5.94    2.22
   2  -4   4    3.96    1.59
  -2  -4  -4    4.63    1.70
   2  -4   4    4.83    1.98
  -3   4  -4    1.26    1.45
   3  -4   4    1.28    1.31
   3  -4   4    1.23    1.42
  -3  -4  -4    0.37    1.35
  -3  -4  -4    0.94    1.18
   4  -4   4   78.36    6.66
   4  -4   4   77.24    7.51
  -4  -4  -4   65.08    6.30
  -4   4  -4   74.12    7.46
   5  -4   4    2.67    1.56
   5  -4   4    1.72    1.63
   5  -4   4    2.95    1.66
   6  -4   4  199.63   12.71
   6  -4   4  179.34   13.93
   6  -4   4  203.26   13.81
   7  -4   4    0.77    0.97
   7  -4   4    1.33    1.54
   7  -4   4    1.21    1.65
   8  -4   4  107.60    9.82
   8  -4   4  128.09   10.16
   9  -4   4    0.44    1.51
   9  -4   4    1.24    1.50
  10  -4   4   20.84    3.91
  11  -4   4    1.70    1.67
  12  -4   4    1.54    1.68
  13  -4   4   20.68    3.35
  14  -4   4   -0.55    1.25
  15  -4   4    2.80    1.28
 -15  -4  -4    4.12    1.65
 -16  -4  -4    3.93    1.50
 -16   4  -4    1.56    1.42
 -17   4  -4    1.61    1.05
 -17  -4  -4    1.44    0.73
  17  -5  -4    9.84    1.98
  16  -5  -4   16.78    2.79
  15  -5  -4   94.02    8.12
  13   5  -4  141.69    9.35
  12   5  -4  251.75   15.47
  12  -5  -4  256.29   18.14
 -11  -5   4    3.03    1.63
  11  -5  -4    9.58    3.14
 -10  -5   4   84.97    7.36
  10  -5  -4   98.74    9.71
  -9  -5   4  177.10   11.99
   9  -5  -4  176.35   13.84
   9   5  -4  146.98   11.15
   8   5  -4   -0.32    1.17
  -8  -5   4    0.36    1.53
   8  -5  -4    0.55    1.98
  -8  -5   4    1.52    1.66
   7   5  -4  131.16    9.92
  -7  -5   4  147.73   10.64
   7  -5  -4  134.59   11.58
   6   5  -4   28.33    6.31
   6   5  -4   28.15    3.94
   6  -5  -4   22.95    4.35
  -6  -5   4   24.11    6.51
   5   5  -4   48.18    8.37
   5   5  -4   30.35    4.24
   5  -5  -4   32.20    4.95
  -5  -5   4   33.72    7.54
   4   5  -4  413.40   30.78
   4   5  -4  385.47   22.84
   4  -5  -4  379.02   23.77
  -4  -5   4  327.65   29.65
  -3  -5   4   72.21   11.60
   3   5  -4   96.82    8.22
  -3  -5   4  100.36    8.44
   3  -5  -4   92.43    8.61
   3   5  -4   88.57   12.47
   2  -5  -4  358.99   22.29
   2   5  -4  383.61   30.25
  -2  -5   4  393.21   23.32
  -2  -5   4  295.97   27.35
   1  -5  -4  403.75   23.20
  -1  -5   4  390.07   23.59
   1  -5  -4  335.64   22.11
   1   5  -4  347.76   29.68
   0  -5   4    0.78    1.53
   0  -5   4    0.47    1.44
   0  -5  -4    2.12    1.96
   0   5  -4   -1.31    3.50
   0  -5  -4    2.43    1.37
   1  -5   4  504.11   27.12
  -1  -5  -4  448.20   25.92
   1  -5   4  501.91   27.93
  -1  -5  -4  398.24   25.63
  -1   5  -4  442.28   26.19
   2  -5   4  184.50   13.11
  -2  -5  -4  193.68   12.78
   2  -5   4  187.46   14.16
  -2   5  -4  189.34   13.36
   3  -5   4  186.50   13.89
   3  -5   4  177.68   12.57
  -3   5  -4  174.86   12.90
  -4   5  -4  353.89   22.23
   4  -5   4  362.41   21.35
   4  -5   4  352.84   22.80
  -5   5  -4   31.31    4.52
   5  -5   4   16.60    3.82
   6  -5   4   94.95    8.94
  -6   5  -4   86.10    8.47
   7  -5   4  121.98    9.00
   7  -5   4  125.63   10.78
  -7   5  -4  147.51   11.41
  -8   5  -4   -1.43    1.80
   8  -5   4    0.41    1.68
   9  -5   4  106.74    9.02
  -9   5  -4  114.58   10.09
  10  -5   4   68.38    6.33
 -10   5  -4   75.58    7.72
 -11   5  -4    1.98    1.62
 -12   5  -4  100.89    8.54
 -13   5  -4   27.36    3.83
 -13  -5  -4   34.52    4.07
 -14   5  -4    4.57    1.49
 -14  -5  -4    8.91    1.88
 -15  -5  -4   19.71    2.42
  13  -6  -4   86.86    6.78
  12  -6  -4    8.68    2.18
  11  -6  -4  186.92   11.19
 -11  -6   4  114.33    8.23
 -10  -6   4   48.16    4.55
  10  -6  -4   47.55    5.71
  10   6  -4   47.08    4.12
  -9  -6   4  138.25    9.80
   9  -6  -4  139.13   11.00
  -8  -6   4  309.59   18.86
   8  -6  -4  321.55   20.12
  -7  -6   4    9.98    2.44
   7   6  -4    7.17    1.86
   7  -6  -4   10.19    2.63
   6   6  -4  134.64    9.31
  -6  -6   4  132.64   10.15
   6  -6  -4  119.19   10.24
   5   6  -4  199.21   12.90
  -5  -6   4  196.48   13.62
   5  -6  -4  194.09   13.81
  -4  -6   4   12.86    3.12
   4  -6  -4   10.12    2.63
   4   6  -4   14.32    2.67
   3   6  -4  424.36   24.83
  -3  -6   4  464.84   26.03
   3  -6  -4  413.71   25.15
   2  -6  -4    8.86    2.26
   2   6  -4   11.27    2.60
   1   6  -4  348.48   20.62
  -1  -6   4  396.70   21.81
   0  -6   4  358.54   21.72
   0   6  -4  340.75   21.02
   1  -6   4   84.55    8.32
   1  -6   4  101.79    8.43
   2  -6   4  302.33   18.91
   2  -6   4  306.19   19.70
   3  -6   4  551.55   30.82
   3  -6   4  553.09   31.88
   4  -6   4    8.87    2.21
   4  -6   4    6.80    2.42
   5  -6   4  391.74   23.67
  -6  -6  -4  156.31   11.17
   6  -6   4  169.40   12.00
  -7  -6  -4   42.22    4.70
   7  -6   4   43.37    4.88
  -8  -6  -4  307.38   18.63
   8  -6   4  323.98   18.53
  -9  -6  -4   59.12    5.52
   9  -6   4   64.12    5.10
 -10  -6  -4   31.22    3.49
 -11  -6  -4  106.63    7.30
  -8  -7   4    5.37    1.33
  -7  -7   4  115.12    7.68
  -6  -7   4    2.45    1.19
  -5  -7   4  128.97    8.91
  -4  -7   4  202.57   11.86
   4   7  -4  170.95   10.46
   3   7  -4    1.04    0.72
   2   7  -4  215.13   12.49
   1   7  -4  103.80    6.99
  -1  -7   4   98.26    7.61
   0   7  -4   21.56    2.56
   0  -7   4   11.18    2.41
   1  -7   4  187.55   12.53
  -1   7  -4  234.83   12.72
   2  -7   4   48.30    4.54
  -2   7  -4   67.87    4.97
  -3   7  -4  159.97    9.97
  -4   7  -4  248.05   14.22
  -5   7  -4   34.48    3.28
  -6   7  -4   34.55    3.17
 -23   0   5    0.32    0.70
  22   0  -5    0.35    0.76
 -22   0   5   -0.25    1.05
  21   0  -5    0.35    1.38
  21   0  -5    0.26    0.92
  20   0  -5    1.26    1.65
  20   0  -5    0.64    1.22
  19   0  -5    1.43    1.64
  18   0  -5    0.52    1.88
  17   0  -5   -1.29    1.62
  17   0  -5   -1.08    1.86
  17   0  -5    1.76    1.92
  16   0  -5    2.13    1.74
  16   0  -5    2.17    2.37
  16   0  -5    3.53    3.33
  15   0  -5    1.64    1.67
  15   0  -5    1.71    3.24
  15   0  -5    0.53    2.31
  14   0  -5   -0.39    1.46
  14   0  -5    4.89    3.56
  14   0  -5   -0.51    1.99
  14   0  -5    0.29    1.05
  13   0  -5    0.84    0.92
  13   0  -5    0.71    1.44
  13   0  -5    1.43    1.72
  13   0  -5    1.53    2.36
  12   0  -5    0.80    0.97
  12   0  -5    1.41    2.18
  12   0  -5    0.44    1.44
  11   0  -5    1.27    3.11
  11   0  -5    0.79    1.56
  10   0  -5    0.36    1.29
  10   0  -5    1.15    2.79
   9   0  -5    0.64    1.22
   8   0  -5   -0.92    2.85
   8   0  -5    0.58    1.35
   7   0  -5    1.31    1.37
   7   0  -5   -0.84    2.04
   6   0  -5   -0.24    1.12
   6   0  -5    0.76    2.03
   5   0  -5    0.46    1.09
   5   0  -5   -0.70    2.17
   4   0  -5    0.67    1.93
   3   0  -5    0.64    2.22
   2   0  -5    1.87    2.25
   1   0  -5   -0.27    0.99
   0   0  -5   -0.24    0.92
  -1   0  -5    0.23    0.79
   1   0   5    0.59    1.93
  -2   0  -5    0.23    0.88
   2   0   5    1.87    2.04
   3   0   5    0.68    1.65
   4   0   5   -0.73    1.60
   5   0   5    2.45    2.53
   6   0   5    3.64    2.63
   7   0   5   -1.01    3.67
   8   0   5    1.13    2.47
  -8   0  -5    0.40    1.16
   9   0   5   -1.26    3.36
  -9   0  -5   -0.45    1.29
  10   0   5   -1.37    3.66
 -10   0  -5    1.45    1.97
  11   0   5   -1.46    3.57
 -11   0  -5   -0.51    1.48
 -12   0  -5    0.53    1.65
  12   0   5    1.54    2.91
  13   0   5    3.18    3.47
 -13   0  -5    0.54    1.78
  14   0   5   -1.57    1.71
 -14   0  -5   -0.53    2.41
 -15   0  -5   -0.51    1.56
  15   0   5    2.76    1.95
 -16   0  -5    1.38    1.66
  16   0   5   -0.42    1.53
 -17   0  -5    0.40    1.50
  17   0   5    0.37    1.27
 -18   0  -5    0.32    1.36
  18   0   5    0.30    1.24
 -19   0  -5    0.55    0.88
 -19   0  -5    0.24    0.97
 -20   0  -5   -0.31    0.51
 -20   0  -5    0.29    0.53
 -22  -1   5    8.00    1.94
  22   1  -5   14.08    1.77
 -22   1   5    8.29    2.10
  21   1  -5   69.65    7.28
  21  -1  -5  104.62    7.39
  21   1  -5  102.03    7.05
  21  -1  -5   70.38    7.38
  20   1  -5   -0.39    1.58
  20  -1  -5   -0.33    1.28
  20  -1  -5    1.19    1.68
  19   1  -5  135.60   10.32
  19   1  -5  126.33   10.99
  19  -1  -5  141.62   10.74
  19  -1  -5  128.77   11.11
  18   1  -5   89.88    9.17
  18  -1  -5  105.82    9.16
  18   1  -5  104.36    8.77
  18  -1  -5   88.55    9.19
  17   1  -5    5.06    3.19
  17  -1  -5    1.74    1.89
  17  -1  -5    1.06    1.83
 -17   1   5    2.96    2.28
  17   1  -5    1.03    1.95
  17   1  -5    1.20    1.81
  17  -1  -5    0.64    1.31
  17  -1  -5    0.90    1.83
 -17  -1   5   -1.49    1.63
 -16   1   5   32.41    8.33
  16   1  -5   28.84    5.18
  16  -1  -5   27.50    5.11
  16  -1  -5   40.35    9.50
 -16  -1   5   31.20    7.58
  16   1  -5   35.44    4.75
  16  -1  -5   27.99    4.10
  16   1  -5   32.40    8.66
  15   1  -5   50.22   10.69
  15  -1  -5   43.00   10.48
  15  -1  -5   45.05    6.07
  15   1  -5   38.17    5.74
 -15   1   5   36.05    8.99
  15  -1  -5   39.30    4.91
  15   1  -5   47.28    5.42
 -15  -1   5   30.57    8.19
  14   1  -5    3.68    1.97
 -14  -1   5    1.40    3.05
  14   1  -5    6.42    4.96
  14  -1  -5   -1.65    3.60
  14   1  -5    1.99    2.17
  14  -1  -5   -0.51    2.00
  14  -1  -5    1.37    1.35
 -14   1   5   -1.39    2.14
 -13   1   5   43.06    8.96
  13   1  -5   48.44    5.99
  13  -1  -5   47.21    6.09
  13  -1  -5   45.57    5.12
  13   1  -5   53.09   10.97
 -13  -1   5   48.78    9.60
  13   1  -5   49.05    5.19
  13  -1  -5   41.96    9.42
  12   1  -5   15.77    2.77
  12   1  -5   18.19    6.15
  12  -1  -5   17.19    6.29
  12  -1  -5   15.58    3.44
  12   1  -5   10.87    3.01
  12  -1  -5   14.55    2.86
  12  -1  -5   15.09    2.76
  11   1  -5  327.08   26.95
  11  -1  -5  298.76   26.12
  11   1  -5  264.30   17.69
  11   1  -5  309.95   18.80
  11  -1  -5  312.75   18.98
  11  -1  -5  266.50   17.27
  11  -1  -5  297.46   17.89
  11   1  -5  290.06   17.61
  10  -1  -5  232.14   21.57
  10   1  -5  218.87   14.84
  10  -1  -5  227.02   15.02
  10   1  -5  237.83   21.58
   9   1  -5   13.36    4.67
   9  -1  -5    9.49    4.20
   9   1  -5   13.53    2.73
   9  -1  -5   13.55    2.77
   8  -1  -5  291.18   24.10
   8   1  -5  337.48   24.89
   8   1  -5  312.51   18.56
   8  -1  -5  308.39   18.61
   7  -1  -5  237.33   19.72
   7  -1  -5  221.67   14.23
   7   1  -5  244.06   14.42
   7   1  -5  215.75   18.88
   6   1  -5   12.22    3.98
   6  -1  -5   17.35    2.65
   6   1  -5   16.97    2.54
   6  -1  -5   12.49    3.98
   5   1  -5  354.84   20.19
   5  -1  -5  350.43   25.06
   5   1  -5  379.24   25.31
   5  -1  -5  356.57   20.28
   4   1  -5    4.74    2.56
   4  -1  -5   -1.38    2.25
   4   1  -5    0.99    1.32
   4  -1  -5    1.64    1.11
   3  -1  -5  343.85   23.60
   3   1  -5  331.24   21.68
   3   1  -5  344.19   23.45
   2  -1  -5    5.71    3.03
   2   1  -5    8.09    2.46
   2   1  -5    2.52    2.18
   1   1  -5  370.57   23.19
   0   1  -5  832.95   47.15
   0  -1  -5  818.25   47.20
  -1   1  -5   15.55    3.81
  -1  -1  -5   14.14    3.85
   1   1   5   17.95    4.13
   1  -1   5    9.48    3.24
  -2   1  -5  346.65   24.20
  -2  -1  -5  364.14   24.61
   2   1   5  368.68   24.47
   2  -1   5  344.54   23.97
  -3   1  -5  130.34   13.35
   3   1   5  167.72   14.26
  -3  -1  -5  178.26   14.77
   3  -1   5  146.58   13.52
  -4   1  -5  181.40   16.27
  -4  -1  -5  177.64   16.23
   4  -1   5  195.73   16.37
   4   1   5  194.53   16.41
   5  -1   5    9.15    3.55
   5   1   5   11.64    3.77
   6  -1   5   88.62   11.55
   6   1   5  119.68   12.89
   7   1   5   -1.03    3.54
   7  -1   5    1.03    1.95
  -8   1  -5  159.63   11.43
  -8  -1  -5  130.17   10.89
   8  -1   5  146.82   16.39
   8   1   5  137.97   16.07
   9   1   5    6.32    4.15
  -9   1  -5    7.91    2.61
  -9  -1  -5    8.58    2.58
   9  -1   5    3.81    3.93
  10  -1   5   -1.37    2.98
 -10   1  -5    5.70    2.26
 -10  -1  -5    2.44    1.84
 -10  -1  -5    1.06    1.34
  10   1   5    2.72    3.63
 -11   1  -5   82.61    8.18
 -11  -1  -5   84.41    8.23
  11  -1   5   71.12   12.58
 -11  -1  -5   63.10    6.59
  11   1   5   70.72   12.52
 -12   1  -5   78.20    8.05
  12   1   5   60.26   12.63
 -12  -1  -5   75.64    8.08
 -12  -1  -5   62.57    6.41
  12  -1   5   51.58   11.47
  13  -1   5    9.27    5.08
 -13  -1  -5   11.22    2.52
 -13   1  -5   13.04    3.26
 -13  -1  -5    9.12    2.98
  13   1   5   13.83    5.83
  14   1   5   72.49   13.14
  14  -1   5   92.51   14.39
 -14   1  -5   87.81    8.89
 -14  -1  -5   89.79    9.05
  15   1   5    3.94    2.25
 -15  -1  -5    4.88    2.21
 -15   1  -5    4.75    2.60
  15  -1   5    5.28    2.36
 -16   1  -5   50.22    6.29
 -16  -1  -5   58.49    6.63
  16   1   5   54.40    6.30
  16  -1   5   51.03    6.00
 -16  -1  -5   65.25    6.18
 -17  -1  -5    4.64    1.71
 -17   1  -5    4.70    1.86
 -17  -1  -5    3.70    1.77
  17   1   5    2.38    1.54
  17  -1   5    1.71    1.35
 -18  -1  -5    3.97    1.49
 -18  -1  -5    2.92    1.44
 -18   1  -5    4.01    1.69
  18   1   5    4.42    1.63
  18  -1   5    3.58    1.54
 -19  -1  -5   -0.14    0.75
 -19   1  -5    0.88    0.96
 -19  -1  -5    0.21    0.93
 -19   1  -5    0.81    0.97
  22  -2  -5   23.84    2.71
 -21  -2   5    1.92    0.92
 -21   2   5    1.57    1.03
  21   2  -5    0.64    0.77
  21  -2  -5    0.95    0.93
  20   2  -5   65.11    6.68
  20  -2  -5   75.28    7.00
  20  -2  -5   91.10    6.48
  20  -2  -5   92.12    7.40
  19  -2  -5   30.25    4.49
  19   2  -5   26.55    4.11
  19  -2  -5   34.88    4.65
  19   2  -5   33.67    4.14
  18   2  -5   13.99    2.88
  18  -2  -5   10.83    3.02
  18   2  -5   11.52    2.97
  18  -2  -5   12.59    4.75
  18  -2  -5   13.70    3.23
  17   2  -5  223.35   16.73
  17  -2  -5  241.21   16.45
  17  -2  -5  272.16   17.49
  17  -2  -5  242.52   17.29
  17   2  -5  257.65   16.42
 -16  -2   5   91.95   12.93
 -16   2   5   93.41   12.94
  16  -2  -5   95.39   14.16
  16  -2  -5   80.24    8.45
  16   2  -5   83.22   13.02
  16   2  -5   75.99    8.10
  16  -2  -5   73.92    7.78
  16  -2  -5   96.33    8.88
  16   2  -5   87.43    7.76
 -15  -2   5  267.95   27.60
 -15   2   5  354.21   29.86
  15  -2  -5  343.63   31.88
  15  -2  -5  330.54   22.04
  15   2  -5  231.53   27.78
  15  -2  -5  373.36   21.63
  15  -2  -5  357.14   22.20
  15   2  -5  332.83   21.88
  15   2  -5  359.23   21.15
  14   2  -5  501.40   29.16
 -14  -2   5  455.93   36.41
 -14   2   5  426.68   35.37
  14   2  -5  424.23   37.27
  14  -2  -5  506.47   29.43
  14  -2  -5  445.23   38.58
  14  -2  -5  490.80   28.31
  14  -2  -5  472.51   28.84
  14   2  -5  486.69   27.90
 -13  -2   5    6.35    3.43
 -13   2   5    4.98    3.87
  13   2  -5    5.97    4.02
  13  -2  -5    7.74    4.49
  13   2  -5    9.24    2.76
  13  -2  -5   12.45    2.95
  13  -2  -5   10.55    2.84
  13   2  -5   14.94    2.91
  12  -2  -5  442.48   35.75
  12   2  -5  434.17   26.54
 -12  -2   5  417.35   33.40
 -12   2   5  433.97   33.48
  12  -2  -5  450.96   26.19
  12   2  -5  458.26   35.61
  12  -2  -5  447.92   26.90
  12   2  -5  435.30   26.16
  12   2  -5  459.35   25.93
  11   2  -5  233.05   22.37
  11  -2  -5  251.20   23.15
  11   2  -5  233.23   15.17
  11  -2  -5  217.71   15.16
  11   2  -5  243.01   15.80
  11  -2  -5  214.24   15.70
  11  -2  -5  245.35   15.88
  10   2  -5   48.12    9.33
  10   2  -5   69.15    6.39
  10   2  -5   62.12    5.85
  10  -2  -5   53.41    5.80
  10  -2  -5   63.39    6.46
  10  -2  -5   69.25   10.68
  10  -2  -5   60.12    6.24
   9   2  -5  427.15   30.82
   9  -2  -5  422.05   30.89
   9   2  -5  419.78   23.76
   9  -2  -5  393.03   23.65
   9   2  -5  413.21   23.14
   9   2  -5  413.68   23.44
   9  -2  -5  385.39   23.35
   9  -2  -5  391.79   23.94
   8   2  -5   49.44    8.05
   8  -2  -5   39.65    4.55
   8   2  -5   37.64    4.27
   8  -2  -5   35.02    7.37
   7  -2  -5  163.59   15.71
   7   2  -5  167.96   10.95
   7  -2  -5  155.83   10.96
   7   2  -5  157.45   15.13
   6   2  -5  538.89   35.13
   6  -2  -5  551.88   35.58
   5   2  -5   38.82    3.97
   5  -2  -5   42.17    6.65
   5  -2  -5   30.15    3.75
   5   2  -5   41.76    6.63
   4  -2  -5  814.26   48.50
   4   2  -5  894.00   43.73
   4  -2  -5  767.02   43.27
   4   2  -5  871.21   48.79
   3  -2  -5   62.29    7.66
   3   2  -5   51.64    7.22
   3   2  -5   55.35    7.34
   3   2  -5   56.04    4.77
   3  -2  -5   44.59    4.38
   2   2  -5   -0.65    2.02
  -1   2   5  806.44   46.02
  -1  -2   5  790.02   45.57
   0   2   5  720.59   43.44
   0  -2   5  790.81   43.84
  -1   2  -5  537.47   33.59
  -1  -2  -5  514.51   33.65
   1  -2   5  585.78   34.09
   1   2   5  567.68   34.03
   2   2   5  542.92   33.78
   2  -2   5  534.84   33.58
  -2   2  -5  542.69   33.73
  -2  -2  -5  546.10   34.09
   3  -2   5   46.90    6.93
  -3   2  -5   41.56    6.61
  -3  -2  -5   33.81    6.14
   3   2   5   50.68    7.09
   4  -2   5  610.05   39.30
  -4   2  -5  604.75   39.14
   4   2   5  635.14   39.62
  -4  -2  -5  693.85   40.67
   5  -2   5  398.24   28.72
  -5   2  -5  401.97   28.47
  -5  -2  -5  402.14   28.96
   5   2   5  403.26   28.55
   6   2   5   84.86   11.02
   6  -2   5  110.02   12.40
  -6   2  -5   82.90   10.67
  -6  -2  -5   92.33   11.62
  -6  -2  -5   80.36    7.16
  -7   2  -5  836.40   43.14
  -7  -2  -5  744.16   42.86
   7  -2   5  779.66   50.34
   7   2   5  793.24   50.59
  -7   2  -5  756.43   49.63
  -7  -2  -5  810.56   43.01
  -8  -2  -5  201.78   13.64
  -8  -2  -5  186.95   13.74
  -8   2  -5  190.08   13.68
   8  -2   5  202.75   19.71
   8   2   5  191.27   19.26
  -9   2  -5   87.42    7.97
  -9  -2  -5   72.82    7.57
  -9  -2  -5   83.69    7.78
   9   2   5   85.93   12.56
   9  -2   5   87.73   12.71
 -10   2  -5  333.78   22.15
 -10  -2  -5  359.64   22.65
  10   2   5  341.16   29.74
  10  -2   5  348.82   29.98
 -10  -2  -5  364.95   22.26
 -11  -2  -5    6.08    2.28
  11   2   5    4.08    3.33
 -11   2  -5    6.12    2.47
 -11  -2  -5    3.93    2.16
  11  -2   5    2.76    3.70
 -12   2  -5  118.69   10.48
 -12  -2  -5  109.87   10.31
  12  -2   5  118.41   16.22
  12   2   5  113.78   15.36
 -12  -2  -5  133.47   10.47
  13   2   5   53.56    9.98
 -13   2  -5   40.12    5.57
 -13  -2  -5   51.72    6.15
 -13  -2  -5   42.18    5.29
  13   2   5   48.46    5.82
  13  -2   5   42.08    5.41
 -13   2  -5   35.99    8.03
 -13  -2  -5   67.85    6.53
 -14  -2  -5   12.84    2.98
  14  -2   5   11.26    2.84
  14  -2   5   12.94    2.47
 -14   2  -5   12.55    3.09
 -14  -2  -5   15.43    3.45
  14   2   5   12.00    2.86
 -14  -2  -5   12.09    2.87
 -15  -2  -5   45.16    5.34
 -15   2  -5   36.55    4.83
 -15  -2  -5   26.34    3.83
  15  -2   5   32.88    4.46
  15   2   5   34.67    4.64
  15  -2   5   32.67    3.83
 -15  -2  -5   43.42    4.80
 -16  -2  -5   73.71    5.84
 -16  -2  -5   57.83    5.97
 -16   2  -5   48.52    5.58
  16  -2   5   51.75    4.77
  16   2   5   57.42    5.86
  16  -2   5   57.97    5.88
 -17  -2  -5   23.27    3.22
 -17   2  -5   16.43    2.85
  17   2   5   19.14    3.01
  17  -2   5   20.18    3.08
 -17  -2  -5   22.85    2.76
 -18  -2  -5   69.23    5.11
 -18   2  -5   60.53    4.90
 -19   2  -5    4.81    1.15
  21  -3  -5   62.16    4.84
  20  -3  -5    9.51    2.16
  19   3  -5   57.08    4.95
  19  -3  -5   60.98    5.04
  19  -3  -5   61.80    6.09
  18  -3  -5   98.43    7.92
  18   3  -5  118.86    8.30
  17   3  -5    0.89    1.34
  17  -3  -5    2.80    1.44
  16  -3  -5  239.99   17.97
  16  -3  -5  261.90   17.79
  16  -3  -5  254.53   16.52
  16   3  -5  266.36   16.41
  15  -3  -5   81.57    7.97
  15  -3  -5   91.38    8.93
  15  -3  -5   85.66    7.78
  15   3  -5   92.50    7.81
  15  -3  -5   88.56    9.49
  14   3  -5  125.06    9.40
  14  -3  -5  119.53   10.27
  14  -3  -5  113.93    9.32
  13  -3  -5  173.07   14.05
  13  -3  -5  220.91   15.37
  13   3  -5  242.26   14.81
  13  -3  -5  199.07   14.27
  12  -3  -5  326.69   19.41
  12  -3  -5  302.33   19.77
  12  -3  -5  284.32   18.01
  11  -3  -5  112.20    9.28
  11   3  -5   89.34    7.96
  11  -3  -5   91.79    9.07
  11  -3  -5   86.13    7.74
  10  -3  -5  995.30   65.73
  10   3  -5 1109.47   58.39
  10  -3  -5 1250.86   59.73
  10  -3  -5 1120.09   59.89
  10  -3  -5 1083.08   57.98
 -10  -3   5  960.07   63.64
  -9  -3   5    8.67    3.00
   9   3  -5    2.82    1.46
   9  -3  -5    2.02    1.57
   9  -3  -5    5.28    1.99
   9  -3  -5    6.40    1.77
   9   3  -5    2.56    1.41
   8  -3  -5  517.29   37.78
   8   3  -5  618.63   32.75
   8   3  -5  637.47   32.96
  -8  -3   5  597.63   32.06
   8  -3  -5  645.18   33.90
   8  -3  -5  557.46   33.45
   8  -3  -5  546.16   32.10
   7   3  -5  445.20   29.86
   7   3  -5  396.47   22.54
   7  -3  -5  317.72   26.29
  -7  -3   5  381.10   21.96
   7  -3  -5  388.45   23.27
   7   3  -5  427.81   22.94
   7  -3  -5  369.47   23.09
   6   3  -5   59.39    8.81
   6   3  -5   49.94    4.82
  -6  -3   5   42.16    4.41
   6  -3  -5   47.91    5.33
   6   3  -5   44.40    4.72
   6  -3  -5   48.54    5.12
   6  -3  -5   37.69    6.39
   5   3  -5 1563.97   76.49
   5  -3  -5 1490.18   76.97
   5   3  -5 1437.74   76.40
  -5  -3   5 1471.03   76.01
   4   3  -5  488.73   26.45
  -4  -3   5  466.28   26.11
   4  -3  -5  459.64   26.47
   3   3  -5  326.51   23.40
  -3  -3   5  256.61   18.78
  -2  -3   5 1127.82   61.14
  -1  -3   5  115.70   11.38
  -1  -3   5  112.17    9.99
   0  -3   5  529.44   31.42
   0  -3   5  513.28   32.17
   1  -3   5  617.45   38.70
  -1   3  -5  714.60   37.58
   2  -3   5  110.54   10.45
  -2  -3  -5  101.30    8.07
  -2   3  -5  114.01    9.14
  -3  -3  -5  590.52   32.98
   3  -3   5  631.86   37.28
  -4  -3  -5  489.53   27.68
  -4  -3  -5  489.80   32.07
   4  -3   5  498.74   32.17
  -5  -3  -5  358.76   21.08
  -5  -3  -5  309.63   24.95
   5  -3   5  391.54   26.38
   6  -3   5 1043.56   52.16
  -6  -3  -5 1017.51   53.00
   6  -3   5  961.13   52.35
  -6  -3  -5  896.59   58.16
   6  -3   5 1004.74   59.14
   7  -3   5   11.33    3.58
  -7  -3  -5    7.97    2.35
   7  -3   5    3.06    1.33
  -7  -3  -5    7.96    3.08
   7  -3   5    4.23    1.57
  -8  -3  -5  190.14   12.84
  -8  -3  -5  150.97   16.67
   8  -3   5  167.79   12.11
  -9  -3  -5  794.20   41.77
   9  -3   5  717.21   41.05
 -10  -3  -5   67.99    7.04
  10  -3   5   85.61    7.59
 -10  -3  -5   77.32    7.31
 -11  -3  -5  466.66   28.91
  11  -3   5  464.07   28.31
  11  -3   5  526.51   29.20
 -12  -3  -5  159.96   12.55
  12  -3   5  203.66   13.12
  12  -3   5  160.33   12.24
 -12  -3  -5  211.26   13.23
 -13  -3  -5   91.41    8.48
  13  -3   5   92.83    7.77
 -13  -3  -5   98.10    7.88
 -14  -3  -5  216.65   13.02
 -14  -3  -5  200.09   13.73
  14  -3   5  183.65   12.65
 -15  -3  -5    6.17    2.01
  15  -3   5    8.96    1.81
 -16  -3  -5   83.13    6.51
 -17   3  -5   88.43    7.21
 -18   3  -5    0.42    0.61
  19  -4  -5   33.40    3.57
  18  -4  -5    5.89    1.81
  17  -4  -5  124.72    9.56
  17   4  -5  105.92    7.51
  16  -4  -5   66.88    7.07
  16  -4  -5   62.92    5.73
  16   4  -5   67.86    5.65
  15  -4  -5  114.54    8.98
  15   4  -5  117.27    8.63
  14   4  -5  158.66   10.84
  14  -4  -5  142.44   10.94
  13   4  -5    7.55    2.12
  13  -4  -5    3.30    8.23
  13  -4  -5    7.21    2.67
  13  -4  -5   10.15    2.53
  12  -4  -5  289.88   20.59
  12  -4  -5  304.19   20.52
  12  -4  -5  271.87   18.12
  11  -4  -5  293.45   20.57
  11  -4  -5  288.50   18.51
 -10  -4   5  188.90   12.76
  10   4  -5  186.94   12.99
  10  -4  -5  195.05   13.53
  10  -4  -5  202.37   15.47
   9   4  -5  818.81   43.24
   9  -4  -5  819.09   45.10
   9  -4  -5  806.37   45.24
   9   4  -5  775.20   42.73
   9  -4  -5  765.69   43.01
  -8  -4   5  138.86   10.55
   8  -4  -5  152.43   12.55
   8   4  -5  160.16   10.97
   8   4  -5  160.72   11.23
   8  -4  -5  163.76   12.74
   8  -4  -5  142.01   10.78
  -7  -4   5   39.79    4.57
   7   4  -5   24.87    6.57
   7   4  -5   34.68    4.46
   7   4  -5   42.16    4.70
   7  -4  -5   44.15    6.05
   7  -4  -5   42.26    5.42
   6   4  -5 1465.93   84.30
   6   4  -5 1494.32   75.63
  -6  -4   5 1495.30   75.42
   6  -4  -5 1388.67   76.67
   6   4  -5 1445.92   75.28
   6  -4  -5 1439.11   76.60
  -5  -4   5  340.85   20.19
   5   4  -5  332.38   26.79
   5   4  -5  330.73   20.11
   5  -4  -5  302.19   20.67
   5   4  -5  331.48   19.93
   5  -4  -5  333.28   20.81
  -5  -4   5  357.68   28.34
   4   4  -5  808.52   49.58
   4   4  -5  774.63   40.84
  -4  -4   5  768.23   40.76
   4  -4  -5  715.88   41.09
   4   4  -5  730.81   40.52
   4  -4  -5  726.08   40.93
   4  -4  -5  749.52   41.21
  -4  -4   5  746.56   48.83
   3   4  -5  756.92   47.41
   3  -4  -5  689.19   38.87
  -3  -4   5  706.86   38.69
   3  -4  -5  689.73   38.77
   3   4  -5  708.06   38.70
   3  -4  -5  722.56   38.94
  -3  -4   5  697.51   45.78
   2   4  -5    6.87    3.77
   2  -4  -5    4.96    1.93
  -2  -4   5    6.64    2.09
   2  -4  -5    5.03    4.14
  -2  -4   5    8.37    2.29
   2   4  -5   11.40    2.45
  -2  -4   5   12.58    4.37
  -1  -4   5  705.53   45.18
   1  -4  -5  670.92   39.14
  -1  -4   5  786.77   40.87
   1  -4  -5  740.58   40.01
   1   4  -5  768.10   40.40
   0  -4   5  390.10   22.78
   0   4  -5  391.19   23.04
   0  -4  -5  365.21   22.21
   0  -4   5  366.14   22.95
   0  -4  -5  376.99   22.51
   1  -4   5  236.72   14.67
  -1   4  -5  208.68   14.70
   1  -4   5  219.13   14.81
  -1  -4  -5  186.97   13.87
  -1  -4  -5  215.59   14.23
   2  -4   5  629.70   34.72
   2  -4   5  595.76   35.03
  -2  -4  -5  618.29   34.66
  -2   4  -5  651.01   35.72
   3  -4   5  142.13   10.81
   3  -4   5  140.71   11.32
  -3  -4  -5  158.32   11.31
  -3   4  -5  173.28   12.47
   4  -4   5  275.37   16.29
   4  -4   5  233.16   16.51
  -4  -4  -5  235.75   16.05
  -4   4  -5  257.22   17.52
   5  -4   5 1304.01   65.91
   5  -4   5 1170.74   66.63
  -5   4  -5 1336.46   68.37
  -6   4  -5   -0.53    1.72
   6  -4   5    0.81    1.60
   6  -4   5   -0.29    1.32
   7  -4   5  628.46   32.51
   7  -4   5  555.00   33.52
   7  -4   5  589.68   33.52
   8  -4   5  170.15   12.36
   9  -4   5   39.36    4.95
  10  -4   5  400.13   23.97
  11  -4   5   17.32    3.08
 -12  -4  -5  187.65   13.85
  12  -4   5  203.13   13.02
 -13  -4  -5  328.85   18.87
 -13   4  -5  261.18   19.07
 -14   4  -5   10.86    2.88
 -14  -4  -5   13.50    2.69
 -15  -4  -5  108.67    7.75
 -15   4  -5   97.12    8.04
 -16  -4  -5   79.19    5.23
 -16   4  -5   55.09    5.20
  14   5  -5   45.60    4.03
  14  -5  -5   41.89    5.35
  13  -5  -5  214.22   14.85
  13   5  -5  197.72   12.52
  12   5  -5   17.89    2.79
  12  -5  -5   14.93    3.46
 -11  -5   5  135.07    9.83
  11  -5  -5  162.54   12.64
 -10  -5   5  317.76   19.40
  10  -5  -5  344.74   22.00
   9   5  -5    1.93    1.41
  -9  -5   5    0.33    1.33
   8   5  -5  338.58   20.54
  -8  -5   5  337.11   20.75
   8  -5  -5  348.15   22.44
   7  -5  -5  305.21   20.45
   7   5  -5  324.92   19.25
  -7  -5   5  269.66   26.90
   6   5  -5   24.72    6.07
   6   5  -5   14.31    2.94
   6  -5  -5   13.67    3.18
  -6  -5   5   21.67    5.96
   5   5  -5  598.36   41.17
   5   5  -5  600.51   32.94
  -5  -5   5  562.29   32.90
   5  -5  -5  582.55   33.65
  -5  -5   5  551.91   41.19
   4   5  -5   26.64    6.40
   4   5  -5   36.84    4.65
  -4  -5   5   30.31    4.42
   4  -5  -5   32.76    4.61
  -4  -5   5   38.54    7.61
   3   5  -5   19.72    5.83
  -3  -5   5   29.01    4.33
   3  -5  -5   22.77    3.82
  -3  -5   5   24.79    5.89
   3   5  -5   26.75    3.96
   3   5  -5   23.72    3.50
   2   5  -5  228.42   22.29
   2   5  -5  246.23   15.78
  -2  -5   5  249.49   15.93
   2   5  -5  231.63   15.08
   2  -5  -5  205.11   14.85
   1   5  -5  454.64   34.28
   1   5  -5  426.91   25.35
   0   5  -5  314.30   29.01
   0  -5  -5  362.92   21.98
   0  -5   5  384.45   23.09
   0   5  -5  337.69   21.79
   0  -5   5  395.57   22.74
   1  -5   5  862.06   44.27
  -1   5  -5  846.18   54.58
  -1  -5  -5  694.99   42.91
   1  -5   5  837.49   44.77
  -1  -5  -5  818.45   43.62
  -1   5  -5  827.01   43.99
  -2   5  -5    8.46    2.47
  -2  -5  -5    9.72    2.42
   2  -5   5    7.47    2.26
   2  -5   5    8.53    2.62
  -2  -5  -5    4.46    1.94
  -3   5  -5  265.98   16.70
   3  -5   5  264.70   16.05
  -3  -5  -5  214.28   15.68
   3  -5   5  230.47   16.42
  -3  -5  -5  232.90   15.49
   4  -5   5  135.19    9.72
  -4   5  -5  126.42   10.43
   4  -5   5  103.25    9.94
  -4  -5  -5  127.02   10.25
  -4  -5  -5  128.34    9.56
  -5   5  -5   21.34    3.81
  -5  -5  -5   21.00    3.86
   5  -5   5   19.85    3.78
   5  -5   5   23.25    3.32
  -5  -5  -5   22.59    3.24
   6  -5   5  150.10   11.98
  -6  -5  -5  178.87   12.89
  -6   5  -5  164.32   12.66
  -7   5  -5    8.19    2.87
   7  -5   5    4.32    1.78
  -7  -5  -5    6.90    2.37
   8  -5   5  136.78   10.57
  -8  -5  -5  173.62   12.30
  -8   5  -5  153.43   12.13
  -9  -5  -5  200.97   14.25
  -9   5  -5  203.02   14.73
 -10   5  -5    0.79    1.61
 -10  -5  -5    1.79    1.51
 -11   5  -5  131.39   10.11
 -12   5  -5   56.10    5.54
 -13   5  -5    0.41    0.84
 -13  -5  -5   -0.43    1.11
 -14   5  -5   14.17    2.27
 -14  -5  -5   39.02    3.22
  13  -6  -5    3.00    1.13
  12  -6  -5   21.92    2.99
  11  -6  -5   57.03    5.40
  11   6  -5   48.61    3.92
 -10  -6   5    1.17    1.02
  10   6  -5    2.90    1.10
  10  -6  -5    2.83    1.54
  -9  -6   5   46.95    4.95
   9  -6  -5   71.37    6.32
  -8  -6   5    3.23    1.45
   8  -6  -5    6.75    2.00
   7   6  -5   27.01    3.28
  -7  -6   5   24.66    3.58
   7  -6  -5   19.16    3.38
   6   6  -5  138.60    9.34
  -6  -6   5  139.71   10.00
   6  -6  -5  109.97    9.34
  -5  -6   5    3.75    1.98
   5   6  -5    3.67    1.58
   5  -6  -5    2.83    1.58
   4   6  -5  276.33   17.03
  -4  -6   5  278.82   17.77
   3   6  -5   76.62    6.77
  -3  -6   5   78.46    7.34
   2   6  -5   10.56    2.35
   1   6  -5  104.96    8.46
   0   6  -5   27.81    3.91
   0  -6   5   30.06    4.29
  -1   6  -5   34.59    4.23
   1  -6   5   28.11    4.07
   2  -6   5    2.86    1.71
   3  -6   5   17.10    2.92
   4  -6   5    2.96    1.38
  -6   6  -5    2.46    1.20
  -7   6  -5    8.73    1.89
  -7  -6  -5   16.80    2.54
  -8   6  -5    8.61    1.69
  -8  -6  -5   11.33    2.05
  -9  -6  -5   -0.58    0.81
 -10  -6  -5   22.95    2.62
  -7  -7   5   10.39    1.68
  -6  -7   5    0.63    0.84
  -5  -7   5    1.98    1.16
  -4  -7   5    1.17    0.98
   3   7  -5    0.97    0.79
   2   7  -5    0.15    0.61
  -1  -7   5    0.41    0.83
   1   7  -5   -0.47    0.89
   0  -7   5    1.66    1.01
   0   7  -5    1.44    0.86
   1  -7   5    0.64    0.81
  -1   7  -5    0.16    0.70
   2  -7   5   -0.12    0.52
  -2   7  -5   -0.32    0.71
  -3   7  -5    0.30    0.70
  -4   7  -5    2.78    0.96
  -5   7  -5    2.17    0.81
 -23   0   6   67.75    5.08
  22   0  -6   10.39    1.86
  21   0  -6   99.30    8.86
  21   0  -6  118.88    8.35
  20   0  -6  106.12    9.93
  20   0  -6  142.07    9.93
  19   0  -6    1.87    1.91
  18   0  -6  395.28   25.62
  18   0  -6  418.50   24.94
  17   0  -6   90.70    9.55
  17   0  -6   93.31   15.23
  17   0  -6   98.59    9.06
  16   0  -6  107.92   17.44
  16   0  -6  109.71    8.69
  16   0  -6  130.15   11.27
  16   0  -6  108.44    9.68
  15   0  -6  709.45   51.45
  15   0  -6  685.42   38.85
  15   0  -6  633.19   35.95
  15   0  -6  664.97   37.37
  14   0  -6   55.33   11.97
  14   0  -6   75.88    8.13
  14   0  -6   69.83    6.47
  13   0  -6  420.85   35.33
  13   0  -6  421.08   25.32
  13   0  -6  376.01   22.85
  12   0  -6  786.76   53.58
  12   0  -6  761.87   42.56
  12   0  -6  731.50   40.45
  12   0  -6  764.98   41.01
  11   0  -6    2.17    1.31
  11   0  -6   -1.39    3.04
  11   0  -6    0.86    1.49
  11   0  -6    0.86    1.34
  10   0  -6  486.86   25.80
  10   0  -6  477.42   35.51
  10   0  -6  475.56   27.09
  10   0  -6  418.64   25.94
  10   0  -6  439.84   25.43
   9   0  -6 1132.31   69.41
   9   0  -6 1156.14   60.78
   8   0  -6  369.61   28.57
   8   0  -6  363.02   21.77
   7   0  -6 4759.45  231.89
   7   0  -6 4399.38  223.02
   6   0  -6   23.62    3.41
   6   0  -6   28.39    6.28
   5   0  -6 2504.49  132.13
   5   0  -6 2473.54  125.07
   4   0  -6 3707.64  189.83
   4   0  -6 3660.30  183.19
   3   0  -6  174.70   15.59
   3   0  -6  163.18   11.00
   2   0  -6 1270.67   65.82
   2   0  -6 1305.77   71.93
   1   0  -6 1088.55   56.40
   0   0   6   46.40    6.92
   0   0  -6   36.03    3.99
   1   0   6 1849.52   96.06
  -1   0  -6 1753.08   90.12
  -2   0  -6  272.09   16.13
   2   0   6  283.23   21.42
   3   0   6  763.17   46.65
   4   0   6 2753.96  145.82
   5   0   6   51.10    8.61
  -6   0  -6  627.06   33.96
   6   0   6  526.66   39.67
  -7   0  -6  284.34   18.20
  -7   0  -6  272.95   17.13
   7   0   6  266.38   24.07
   8   0   6   64.45   11.11
  -8   0  -6   73.91    7.45
  -8   0  -6   63.28    6.28
  -9   0  -6  798.69   44.47
   9   0   6  756.93   53.40
 -10   0  -6  252.64   17.94
  10   0   6  247.57   25.54
 -11   0  -6  150.41   12.54
  11   0   6  141.83   18.49
 -12   0  -6  846.78   47.82
  12   0   6  840.20   58.57
 -13   0  -6  126.69   11.16
  13   0   6  108.00   16.60
 -14   0  -6  176.80   13.90
 -15   0  -6  131.74   11.28
  15   0   6  146.84   11.37
 -16   0  -6    4.60    2.14
 -16   0  -6    4.36    2.18
  16   0   6    7.04    2.23
 -17   0  -6  111.96    8.86
  17   0   6  103.01    8.63
 -18   0  -6   46.50    4.63
 -19   0  -6    5.56    1.54
 -22  -1   6   43.69    4.67
 -22   1   6   43.76    4.88
  22  -1  -6   80.40    5.26
  22   1  -6   82.14    5.01
  21  -1  -6   23.54    3.24
  21   1  -6   23.64    3.01
  20  -1  -6    5.33    2.18
  20  -1  -6    5.40    1.92
  20   1  -6    8.88    2.37
  19   1  -6  280.89   16.56
  19   1  -6  233.43   16.84
  19  -1  -6  234.21   16.90
  19  -1  -6  246.55   16.42
  18   1  -6   81.46    8.34
  18  -1  -6   65.04    7.84
  18  -1  -6   67.99    6.58
  18  -1  -6   87.11    7.95
  18   1  -6   85.37    7.66
  17   1  -6  211.02   15.82
  17  -1  -6  212.94   15.91
  17  -1  -6  194.81   13.86
  17  -1  -6  220.75   15.39
  17   1  -6  225.06   15.00
 -16  -1   6  263.95   27.21
 -16   1   6  259.67   27.16
  16   1  -6  262.04   28.68
  16  -1  -6  246.40   28.70
  16   1  -6  315.95   20.95
  16  -1  -6  316.67   21.12
  16  -1  -6  317.91   19.22
  16   1  -6  327.02   19.85
  15  -1  -6    7.10    2.88
  15   1  -6    7.23    2.42
 -15   1   6    1.48    3.98
  15   1  -6    3.45    3.28
  15  -1  -6   10.64    5.48
  15   1  -6   10.63    3.19
  15  -1  -6    7.09    2.75
  15  -1  -6    7.37    2.26
 -15  -1   6    8.96    4.62
  14   1  -6  437.45   37.41
  14  -1  -6  436.50   37.44
 -14  -1   6  433.37   35.14
 -14   1   6  374.06   33.61
  14  -1  -6  456.49   27.53
  14  -1  -6  412.04   25.35
  14   1  -6  459.83   27.51
  14  -1  -6  432.27   26.21
  14   1  -6  447.01   25.87
  13   1  -6  400.19   33.65
  13  -1  -6  396.65   33.73
  13   1  -6  347.45   22.89
  13  -1  -6  367.10   23.26
  13  -1  -6  364.00   21.52
  13   1  -6  336.37   20.67
  13  -1  -6  339.44   21.79
  13   1  -6  366.77   21.66
  12   1  -6  305.59   28.45
  12  -1  -6  336.25   29.83
  12   1  -6  346.06   20.60
  12  -1  -6  321.37   20.42
  12   1  -6  251.64   18.63
  12  -1  -6  304.69   18.67
  12   1  -6  293.23   18.09
  12  -1  -6  320.12   19.24
  11  -1  -6  806.52   52.07
  11   1  -6  791.61   41.37
  11  -1  -6  765.25   41.35
  11   1  -6  827.61   52.19
  11   1  -6  673.29   40.03
  11  -1  -6  706.04   39.75
  11  -1  -6  725.79   40.01
  10  -1  -6    8.06    2.23
  10  -1  -6    9.04    4.49
  10   1  -6   11.06    2.74
  10  -1  -6    9.73    2.63
  10  -1  -6   10.56    2.25
  10   1  -6   10.07    5.17
  10   1  -6   16.52    2.73
  10   1  -6   11.62    2.47
   9  -1  -6  826.22   51.15
   9   1  -6  782.22   42.14
   9  -1  -6  793.82   42.22
   9   1  -6  719.73   41.19
   9  -1  -6  754.45   41.06
   9   1  -6  886.52   51.98
   8   1  -6 1349.39   81.12
   8  -1  -6 1406.58   81.66
   8   1  -6 1435.40   73.50
   8  -1  -6 1423.24   73.53
   7   1  -6    3.16    1.47
   7   1  -6    1.96    2.83
   7  -1  -6    1.00    2.68
   7  -1  -6    1.29    1.50
   6   1  -6  729.56   45.43
   6  -1  -6  707.82   45.44
   5  -1  -6  926.27   55.62
   5   1  -6  943.45   49.13
   5  -1  -6  930.84   49.20
   5   1  -6  890.57   54.93
   4  -1  -6    1.68    2.25
   4   1  -6    0.57    1.88
   4  -1  -6    2.31    1.41
   4   1  -6   -0.29    1.40
   4   1  -6    0.83    2.02
   3   1  -6 2285.42  124.16
   3  -1  -6 2324.16  124.56
   3   1  -6 2334.01  121.34
   3   1  -6 2350.19  118.06
   3  -1  -6 2369.35  118.13
   2   1  -6  594.67   34.28
   2   1  -6  560.55   31.23
   2  -1  -6  578.12   31.26
   1  -1  -6 1376.82   70.64
   1   1  -6 1410.81   73.69
   1   1  -6 1362.47   70.66
   0   1  -6 1862.91   95.44
   0   1  -6 1876.69   98.17
   0  -1  -6 1820.39   98.16
   0  -1   6 1745.48   97.64
   0   1   6 1788.97   97.83
  -1   1  -6   37.03    5.31
  -1  -1  -6   46.52    7.11
  -1   1  -6   52.77    7.71
   1   1   6   24.14    5.33
   1  -1   6   39.49    6.50
   2   1   6  279.55   22.14
   2  -1   6  296.64   22.52
  -2   1  -6  315.64   23.20
  -2  -1  -6  309.13   23.07
  -3   1  -6  585.04   39.47
   3   1   6  593.26   39.24
  -3  -1  -6  677.40   40.69
   3  -1   6  627.67   39.56
   4   1   6   21.87    5.33
  -4   1  -6   33.08    6.71
  -4  -1  -6   34.23    6.69
   4  -1   6   23.57    5.66
  -5   1  -6  779.35   49.45
  -5  -1  -6  853.51   51.03
   5   1   6  758.47   49.07
   5  -1   6  733.32   48.56
  -6  -1  -6  229.57   16.22
   6   1   6  241.79   22.23
  -6   1  -6  289.75   17.31
  -6  -1  -6  268.12   17.21
  -6  -1  -6  288.32   16.95
  -6   1  -6  255.22   23.01
  -6  -1  -6  231.48   22.39
   6  -1   6  250.11   22.43
  -7   1  -6  255.15   16.35
  -7  -1  -6  218.21   15.86
  -7   1  -6  196.54   21.14
  -7  -1  -6  264.87   16.02
  -7  -1  -6  229.20   22.23
   7   1   6  242.06   22.36
   7  -1   6  212.59   21.57
  -8   1  -6  983.21   54.25
  -8  -1  -6 1056.77   54.75
  -8  -1  -6  990.76   53.50
   8   1   6  971.43   63.23
   8  -1   6  964.06   63.38
   9   1   6   56.14   10.79
   9  -1   6   39.37    9.16
  -9   1  -6   51.88    6.33
  -9  -1  -6   54.31    6.48
  -9  -1  -6   51.31    5.74
 -10   1  -6  430.76   27.23
 -10  -1  -6  443.44   27.47
 -10  -1  -6  463.66   26.26
  10   1   6  411.23   35.88
  10  -1   6  416.25   35.80
 -11   1  -6  237.81   16.42
 -11  -1  -6  222.46   16.20
 -11  -1  -6  217.91   14.75
  11   1   6  189.44   22.38
  11  -1   6  169.77   21.77
  12  -1   6   26.29    7.64
  12   1   6   20.09    7.06
 -12   1  -6   24.91    7.31
 -12   1  -6   26.60    4.84
 -12  -1  -6   28.43    4.87
 -12  -1  -6   22.72    3.80
 -12  -1  -6   22.53    7.13
 -13   1  -6  393.38   23.46
 -13  -1  -6  409.33   23.91
 -13  -1  -6  310.64   20.69
  13  -1   6  345.46   31.52
  13   1   6  341.63   31.39
 -14   1  -6  142.08   12.12
 -14  -1  -6  139.77   12.27
 -15   1  -6   34.77    4.94
 -15  -1  -6   46.17    5.62
  15  -1   6   35.74    4.87
  15   1   6   28.99    4.63
 -16  -1  -6  184.11   12.96
 -16   1  -6  178.48   12.76
  16   1   6  188.12   12.79
  16  -1   6  164.21   12.34
 -16  -1  -6  174.47   12.23
 -17   1  -6   29.78    3.75
 -17  -1  -6   28.43    3.91
 -17   1  -6   28.95    3.96
  17   1   6   29.06    3.92
  17  -1   6   37.01    4.18
 -17  -1  -6   38.11    3.84
 -18  -1  -6   13.86    1.96
 -18   1  -6   10.46    1.94
 -18  -1  -6   13.88    2.33
 -18   1  -6    8.59    1.97
 -19   1  -6   10.65    1.61
  22  -2  -6   -0.13    0.52
 -21   2   6   27.71    3.18
  20   2  -6   61.74    6.36
  20  -2  -6   70.64    6.73
  19  -2  -6    2.46    1.67
  19   2  -6    2.59    1.64
  18   2  -6  120.15   10.53
  18  -2  -6  123.10   10.72
  18  -2  -6  129.65   10.65
  18  -2  -6  151.02   11.17
  18   2  -6  156.35   10.61
  17   2  -6    6.27    2.37
  17   2  -6    7.27    2.47
  17  -2  -6    6.12    2.27
  17  -2  -6    9.52    2.70
  17  -2  -6    5.78    2.35
  16   2  -6   11.98    3.08
  16   2  -6    7.60    2.43
  16  -2  -6    9.11    2.63
  16  -2  -6    9.04    2.99
  15   2  -6   12.30    2.75
 -15   2   6   17.43    5.29
  15   2  -6    1.58    2.48
  15  -2  -6   21.47    7.44
  15   2  -6   10.41    3.09
  15  -2  -6    8.28    2.97
  15  -2  -6    7.82    2.65
 -15  -2   6   14.83    4.90
 -14   2   6   71.00   11.86
  14  -2  -6   61.19   12.69
  14   2  -6   90.65   13.97
  14  -2  -6   77.54    8.33
  14  -2  -6   85.12    8.00
  14   2  -6   71.61    7.93
  14   2  -6   85.15    7.62
 -14  -2   6   69.02   12.33
 -13   2   6   73.32   11.99
  13   2  -6   88.04   14.28
  13  -2  -6   86.55   14.24
  13   2  -6   85.85    8.70
  13  -2  -6   95.15    9.15
  13  -2  -6   91.46    8.35
 -13  -2   6   84.76   12.87
  13  -2  -6   99.40    9.03
  13   2  -6   90.76    8.08
  12   2  -6  408.95   34.20
  12  -2  -6  378.28   33.77
  12   2  -6  445.32   26.16
  12  -2  -6  434.16   26.18
  12   2  -6  414.68   25.25
  12  -2  -6  418.28   25.22
  12  -2  -6  411.58   25.69
  12   2  -6  421.21   24.93
  11  -2  -6   12.70    5.20
  11  -2  -6   17.53    3.58
  11   2  -6   20.28    3.72
  11   2  -6   25.47    3.85
  11   2  -6   14.90    5.81
  11  -2  -6   24.99    3.85
  11  -2  -6   21.31    3.84
  10   2  -6  237.87   22.68
  10  -2  -6  246.98   23.20
  10   2  -6  240.32   15.90
  10  -2  -6  229.83   15.84
  10   2  -6  241.06   15.37
  10  -2  -6  245.92   15.56
  10  -2  -6  203.48   15.38
   9   2  -6  445.36   31.57
   9  -2  -6  387.60   30.60
   9   2  -6  419.68   23.31
   9  -2  -6  399.17   23.38
   9   2  -6  354.86   22.36
   9  -2  -6  391.74   22.79
   9  -2  -6  345.51   22.73
   8   2  -6    9.37    2.13
   8  -2  -6    8.96    4.08
   8  -2  -6   10.88    2.45
   8   2  -6   13.97    4.72
   7   2  -6  316.45   24.24
   7  -2  -6  269.53   23.44
   7   2  -6  278.86   16.86
   7  -2  -6  294.88   17.42
   7   2  -6  296.87   17.45
   7   2  -6  300.02   17.93
   7  -2  -6  263.22   17.08
   7  -2  -6  267.64   17.63
   6   2  -6   52.17    8.26
   6   2  -6   47.59    5.02
   6  -2  -6   39.85    4.83
   5  -2  -6  186.40   17.87
   5   2  -6  209.30   17.93
   5   2  -6  208.66   13.72
   5  -2  -6  223.28   14.02
   5   2  -6  247.90   19.50
   4   2  -6  214.57   18.19
   4  -2  -6  213.42   18.31
   4   2  -6  243.33   18.29
   4  -2  -6  209.24   13.48
   4   2  -6  195.31   13.18
   3   2  -6   58.22    7.98
   3  -2  -6   59.35    5.46
   3   2  -6   63.22    5.55
   2   2  -6  114.13   11.61
   2  -2  -6   97.99    7.77
   2   2  -6  117.39    8.17
   1   2  -6  311.75   22.68
  -1  -2   6  307.46   22.26
  -1   2   6  294.30   22.22
   0   2   6   23.84    5.12
   0  -2   6   19.63    4.61
   1   2   6  317.44   24.02
   1  -2   6  346.85   24.37
   2   2   6  551.63   36.81
   2  -2   6  591.26   37.16
  -2   2  -6  593.19   37.22
  -2  -2  -6  576.93   37.53
  -3   2  -6   67.23    9.31
  -3  -2  -6   76.73   10.18
   3   2   6   80.51   10.18
   3  -2   6   77.02    9.90
   4   2   6  429.97   31.85
   4  -2   6  492.51   32.92
  -4  -2  -6  476.73   26.83
  -4  -2  -6  448.62   32.56
  -4   2  -6  445.88   31.93
  -5  -2  -6   68.45   10.16
  -5   2  -6   72.17    6.50
  -5  -2  -6   64.77    6.51
   5   2   6   52.54    9.16
  -5   2  -6   69.16    9.96
   5  -2   6   78.43   10.64
  -6  -2  -6   58.21   10.02
  -6   2  -6   95.33   11.97
  -6   2  -6   76.30    7.03
  -6  -2  -6   73.57    7.28
   6  -2   6   81.05   11.49
   6   2   6   80.17   11.20
  -6  -2  -6   73.93    6.96
   7   2   6  152.43   16.98
  -7   2  -6  155.76   16.69
  -7   2  -6  122.52   10.49
  -7  -2  -6  137.77   10.97
  -7  -2  -6  159.49   17.31
   7  -2   6  134.35   16.19
  -7  -2  -6  150.05   11.09
   8   2   6   11.56    5.28
   8  -2   6   20.45    6.57
  -8  -2  -6   14.90    3.35
  -8   2  -6   13.80    4.98
  -8  -2  -6    6.66    3.89
  -8   2  -6   11.48    2.85
  -8  -2  -6   13.84    3.15
  -8  -2  -6   14.47    3.18
  -9   2  -6  300.88   20.65
  -9  -2  -6  335.21   21.19
  -9   2  -6  281.76   27.24
  -9  -2  -6  310.74   28.55
  -9  -2  -6  352.04   21.05
  -9  -2  -6  360.28   21.39
   9   2   6  245.75   26.50
   9  -2   6  326.88   28.85
 -10   2  -6   50.21    6.12
 -10  -2  -6   59.74    6.67
 -10   2  -6   60.72   10.42
 -10  -2  -6   40.17    8.81
  10  -2   6   38.70    9.03
 -10  -2  -6   61.38    6.51
  10   2   6   48.45    9.29
 -10  -2  -6   49.37    6.13
  11   2   6   63.13   11.67
  11  -2   6   78.37   12.60
 -11   2  -6   61.99    7.28
 -11  -2  -6   73.17    7.81
 -11   2  -6   52.55   10.27
 -11  -2  -6   74.63    7.40
 -11  -2  -6   69.09   11.64
 -11  -2  -6   84.29    7.93
 -12   2  -6   75.76    8.00
 -12  -2  -6   87.93    8.52
 -12  -2  -6   82.12    7.79
 -12  -2  -6   93.12    8.29
  12   2   6   73.34   12.09
  12  -2   6   72.94   11.65
 -13   2  -6   46.02    5.78
 -13  -2  -6   43.27    5.77
 -13  -2  -6   43.70    5.31
  13  -2   6   45.56    5.55
  13   2   6   47.22    5.64
 -13  -2  -6   55.43    5.96
 -14   2  -6   35.09    4.83
 -14  -2  -6   36.77    4.94
 -14  -2  -6   34.24    4.31
  14   2   6   33.47    4.75
  14  -2   6   28.96    4.38
 -14  -2  -6   46.74    5.00
 -15   2  -6   83.54    7.45
 -15  -2  -6   89.09    7.66
 -15  -2  -6   70.53    6.54
 -15  -2  -6  105.05    7.58
  15   2   6   96.86    7.74
  15  -2   6   82.84    7.42
 -16  -2  -6   15.12    2.34
 -16   2  -6    3.14    1.86
 -16  -2  -6    6.23    1.87
 -16   2  -6    9.89    2.16
  16   2   6    7.98    2.01
  16  -2   6   10.12    2.14
 -17   2  -6   83.32    6.15
 -17   2  -6   52.17    5.74
 -18   2  -6   22.72    2.43
  21  -3  -6    0.68    0.58
  20  -3  -6    2.04    1.11
  19   3  -6    6.57    1.61
  19  -3  -6    5.74    1.97
  18   3  -6    0.51    1.07
  17  -3  -6   39.27    7.29
  17   3  -6   33.13    4.09
  16  -3  -6   40.38    6.91
  16  -3  -6   31.90    4.01
  16   3  -6   38.75    4.57
  15  -3  -6    4.72    1.66
  15   3  -6    6.68    2.25
  15  -3  -6    4.07    1.95
  15  -3  -6    7.44    3.32
  14   3  -6   54.25    5.77
  14  -3  -6   54.29    6.58
  14  -3  -6   58.95    6.78
  14  -3  -6   55.19    5.43
  13  -3  -6   24.45    4.45
  13  -3  -6   17.98    3.93
  13  -3  -6   18.59    3.78
  13   3  -6   21.06    3.58
  13  -3  -6   21.53    3.35
  12  -3  -6    6.08    2.33
  12  -3  -6    7.78    2.92
  12  -3  -6    2.57    2.26
  12  -3  -6    5.25    1.81
  12   3  -6    5.07    1.97
  11   3  -6   41.61    5.02
  11  -3  -6   36.27    5.16
  11  -3  -6   32.55    5.23
  11  -3  -6   32.13    4.68
  10  -3  -6   13.81    3.32
  10  -3  -6   18.57    3.32
  10   3  -6   22.63    3.52
   9  -3  -6  146.22   16.48
   9   3  -6  170.31   11.66
  -9  -3   6  160.06   10.71
   9   3  -6  173.68   11.91
   9  -3  -6  166.53   12.52
   9  -3  -6  141.46   11.44
   8   3  -6    6.60    1.94
   8  -3  -6    5.08    2.49
   8   3  -6    4.23    1.92
  -8  -3   6    4.04    1.62
   8  -3  -6    4.85    2.03
   8  -3  -6    2.02    1.54
   7  -3  -6  147.84   15.53
   7   3  -6  181.25   12.17
  -7  -3   6  185.57   11.85
   7  -3  -6  181.21   12.96
   7   3  -6  194.21   12.64
   7  -3  -6  159.92   12.28
   6   3  -6    3.75    1.49
  -6  -3   6    1.41    1.07
   6  -3  -6    1.12    1.47
   6  -3  -6    0.67    1.10
   6  -3  -6    1.07    1.11
  -5  -3   6   56.91    5.35
   5  -3  -6   49.18    5.60
   5   3  -6   56.80    5.71
   4   3  -6    1.02    1.12
   4   3  -6   -0.30    1.23
  -4  -3   6   -0.29    1.38
   4  -3  -6    2.30    1.52
  -4  -3   6   -0.68    1.66
   3   3  -6   50.24    4.99
   3   3  -6   49.61    5.22
  -3  -3   6   41.00    6.35
   2   3  -6   49.58    8.36
   2  -3  -6   49.12    5.20
   2   3  -6   53.91    5.58
  -2  -3   6   41.16    6.53
   1   3  -6    0.73    1.38
  -1  -3   6    0.65    1.42
   1   3  -6   -0.99    1.53
   1  -3  -6   -0.33    1.34
  -1  -3   6    1.36    1.05
   1  -3  -6    0.31    0.89
   0  -3   6   31.32    5.52
   0   3  -6   34.68    4.56
   0  -3  -6   34.38    4.20
   0  -3   6   38.93    4.29
  -1  -3  -6   31.75    4.15
   1  -3   6   30.95    5.44
  -1   3  -6   32.85    4.47
   2  -3   6    1.49    1.15
  -2  -3  -6    0.99    1.20
  -2   3  -6   -0.42    1.30
  -2  -3  -6    0.73    1.20
  -3  -3  -6    4.44    1.72
  -3   3  -6    1.78    1.76
  -3  -3  -6    3.10    1.65
   4  -3   6   10.41    3.44
  -4   3  -6    9.82    2.74
  -4  -3  -6    8.87    2.27
   5  -3   6    4.69    2.51
  -5  -3  -6    3.68    1.76
  -5  -3  -6    3.86    2.11
  -6  -3  -6    7.25    3.93
  -6  -3  -6    8.45    2.36
   6  -3   6    5.59    1.67
  -7  -3  -6   24.35    3.89
   7  -3   6   25.38    3.30
  -8  -3  -6   14.80    3.12
  -8  -3  -6   13.13    2.86
  -9  -3  -6   71.40    6.93
  -9  -3  -6   55.42    6.09
  -9  -3  -6   63.97    7.11
 -10  -3  -6    0.77    1.11
 -10  -3  -6   -0.46    1.52
 -10  -3  -6    1.21    1.59
 -11  -3  -6    9.86    2.48
 -11  -3  -6    6.18    2.09
 -11  -3  -6    6.62    2.66
 -12  -3  -6    2.05    1.59
 -12  -3  -6    0.41    1.60
 -13  -3  -6   41.98    4.44
 -13  -3  -6   33.65    4.59
 -14  -3  -6    8.45    1.90
 -14   3  -6    3.43    2.09
 -14  -3  -6    4.53    1.70
 -15   3  -6   26.72    4.00
 -15  -3  -6   28.16    3.42
 -16  -3  -6   24.15    2.46
 -16   3  -6   22.51    3.09
 -17   3  -6   -0.14    0.68
  19  -4  -6    1.93    1.03
  18   4  -6   10.96    1.62
  17   4  -6    0.38    0.85
  16   4  -6    6.60    1.76
  15   4  -6    2.19    1.47
  15  -4  -6    1.32    1.79
  14   4  -6    8.07    2.12
  14  -4  -6    3.83    7.56
  14  -4  -6    6.79    2.62
  13  -4  -6   43.11    8.99
  13  -4  -6   59.05    6.98
  13   4  -6   50.58    5.45
  12  -4  -6   -0.55    1.70
  12  -4  -6    1.22    1.24
  11   4  -6   50.23    5.76
  11  -4  -6   62.57    7.36
  10  -4  -6    7.54    3.85
  10  -4  -6   11.29    3.12
  10   4  -6    4.83    1.98
   9   4  -6    1.44    1.52
  -9  -4   6    0.89    1.12
   9  -4  -6   -1.00    2.32
   9  -4  -6    0.51    1.59
   9   4  -6    0.35    1.20
   8   4  -6   45.38    5.25
  -8  -4   6   46.93    5.04
   8  -4  -6   45.17    6.12
   8   4  -6   48.73    5.33
   8  -4  -6   44.71    5.91
   7   4  -6   24.90    3.70
   7   4  -6   28.59    3.94
  -7  -4   6   25.84    3.66
   7  -4  -6   23.43    4.46
   7  -4  -6   21.39    4.00
   6   4  -6   66.57   10.71
   6   4  -6   69.06    6.69
  -6  -4   6   69.18    6.62
   6  -4  -6   70.28    7.60
   6   4  -6   70.02    6.75
   6  -4  -6   78.45    7.46
   5   4  -6  233.75   21.37
   5   4  -6  223.92   14.51
  -5  -4   6  212.48   14.29
   5  -4  -6  195.71   14.90
   5   4  -6  220.67   14.53
   5  -4  -6  198.07   14.40
  -5  -4   6  234.90   21.67
   4   4  -6  150.17   11.13
  -4  -4   6  162.84   11.41
   4  -4  -6  145.69   11.55
   4   4  -6  154.88   11.28
   4  -4  -6  160.03   11.74
   4  -4  -6  134.92   10.85
  -4  -4   6  157.81   16.50
   3   4  -6    7.32    2.22
  -3  -4   6    9.17    2.46
   3  -4  -6    6.67    2.87
   3  -4  -6    7.53    2.23
  -3  -4   6    6.12    2.75
  -2  -4   6  232.31   15.58
   2  -4  -6  228.56   15.69
   2   4  -6  242.36   15.85
   1  -4  -6  164.50   12.15
   1  -4  -6  178.97   12.82
   1   4  -6  197.44   13.32
   0   4  -6    1.69    1.60
   0  -4   6    1.19    1.30
   0  -4  -6   -0.39    1.58
   0  -4  -6    1.46    1.32
   1  -4   6   60.08    6.23
  -1   4  -6   58.18    6.45
  -1  -4  -6   63.38    6.38
   1  -4   6   52.51    5.96
  -1  -4  -6   54.06    5.98
  -2   4  -6    0.92    1.34
  -2  -4  -6    6.57    2.11
  -2  -4  -6    1.96    1.42
   2  -4   6    4.16    1.98
   2  -4   6    1.94    1.47
   3  -4   6   53.39    5.92
  -3  -4  -6   48.50    6.00
  -3  -4  -6   55.98    6.04
   3  -4   6   60.71    5.98
  -3   4  -6   54.82    6.55
  -4   4  -6   10.03    3.05
   4  -4   6   14.18    2.76
  -4  -4  -6   14.09    2.87
   4  -4   6   10.17    2.47
  -4  -4  -6   12.25    3.07
  -5   4  -6   11.43    3.26
   5  -4   6   10.09    2.40
  -5  -4  -6   15.07    3.34
  -6  -4  -6    1.45    1.59
  -6   4  -6    2.14    1.94
   6  -4   6    5.08    1.67
   7  -4   6   59.59    5.44
  -7  -4  -6   61.97    7.18
  -7   4  -6   61.93    7.62
  -8   4  -6   14.15    3.53
  -9   4  -6   74.61    8.34
 -10  -4  -6   68.52    7.32
 -10   4  -6   72.83    7.95
 -11   4  -6    0.45    1.57
 -11  -4  -6    1.17    1.71
 -12   4  -6   22.93    4.00
 -12  -4  -6   17.57    3.33
 -13   4  -6   28.27    4.27
 -13  -4  -6   35.46    4.20
 -14  -4  -6    4.72    1.55
 -14   4  -6    0.78    1.27
 -15   4  -6   14.61    2.52
 -15  -4  -6   24.45    2.57
  16  -5  -6   41.01    4.01
  15   5  -6    1.26    0.76
  15  -5  -6   -0.81    1.21
  14  -5  -6   73.13    6.83
  14   5  -6   74.54    5.60
  13   5  -6  122.37    8.39
  13  -5  -6  114.66    9.60
  12   5  -6    1.34    1.24
  12  -5  -6    2.53    1.78
 -11  -5   6   49.49    4.94
  11  -5  -6   62.78    6.81
 -10  -5   6    8.95    2.17
  10  -5  -6   12.80    3.31
   9   5  -6   94.18    7.65
  -9  -5   6   73.80    7.04
   9  -5  -6   98.95    8.78
   8   5  -6   90.17    7.90
  -8  -5   6  110.49    8.51
   8  -5  -6   91.96    8.73
   7   5  -6   15.47    2.90
   7  -5  -6   13.76    3.16
   6   5  -6  334.84   19.92
   6   5  -6  313.28   19.11
   6  -5  -6  316.29   20.26
   5   5  -6   62.92    6.33
  -5  -5   6   60.58    6.24
   5   5  -6   65.83    6.02
   5  -5  -6   52.12    5.96
   4   5  -6    9.40    2.23
   4   5  -6   14.63    4.64
   4   5  -6    8.95    2.50
  -4  -5   6    9.39    2.61
   4  -5  -6   13.43    2.71
   3   5  -6   89.03   12.47
   3   5  -6   93.50    8.05
  -3  -5   6   86.97    7.93
   3   5  -6   86.74    7.62
   2   5  -6  150.65   16.68
   2   5  -6  141.91   11.15
  -2  -5   6  148.21   11.37
   2   5  -6  155.07   11.14
   1   5  -6   16.53    3.09
   1   5  -6   16.61    5.09
   1   5  -6   20.60    3.59
   1  -5  -6   13.52    3.00
   0  -5   6  162.08   12.70
   0  -5  -6  186.42   12.89
   0   5  -6  180.06   12.78
   1  -5   6  163.24   11.61
  -1  -5  -6  153.96   11.21
  -1   5  -6  167.71   11.69
   2  -5   6   60.68    6.04
  -2  -5  -6   42.34    5.25
  -2  -5  -6   43.70    5.26
  -2   5  -6   49.89    5.73
   3  -5   6  354.13   20.17
  -3  -5  -6  315.83   20.32
   3  -5   6  280.30   19.87
  -3  -5  -6  350.37   20.28
  -3   5  -6  326.15   20.58
  -4   5  -6    0.85    1.47
   4  -5   6    1.56    1.32
   4  -5   6    1.12    1.23
  -4  -5  -6   -0.68    1.18
  -4  -5  -6    0.41    1.26
  -5   5  -6  139.00   10.84
   5  -5   6  142.24    9.52
  -5  -5  -6  134.83   10.65
   5  -5   6  105.93    9.45
  -5  -5  -6  127.07    9.69
  -6   5  -6   37.16    5.07
  -6  -5  -6   37.23    5.13
  -7   5  -6   60.41    6.64
  -7  -5  -6   66.04    6.82
  -8  -5  -6  107.39    9.41
  -8   5  -6  126.41   10.06
  -9   5  -6    9.65    2.66
  -9  -5  -6   16.57    3.12
 -10  -5  -6   87.05    7.36
 -10   5  -6   82.53    7.38
 -11   5  -6   60.36    5.61
 -12   5  -6    0.20    0.79
 -13  -5  -6   33.03    3.01
 -13   5  -6   18.60    2.49
  12  -6  -6   56.01    4.55
  11   6  -6    0.41    0.74
  11  -6  -6    0.39    0.83
 -10  -6   6   95.01    7.10
  10   6  -6  128.61    7.67
  -9  -6   6  111.08    7.81
  -8  -6   6    9.43    1.95
   7   6  -6  186.54   11.97
  -7  -6   6  194.71   12.41
   6   6  -6   53.71    4.96
  -6  -6   6   54.13    5.46
   5   6  -6   18.03    2.82
  -5  -6   6   18.23    3.12
   4   6  -6  280.90   16.66
  -4  -6   6  263.95   17.07
   3   6  -6   83.30    6.88
  -3  -6   6   80.07    7.38
   2   6  -6  278.40   17.07
   1   6  -6  223.93   14.40
   0   6  -6   47.86    5.02
   0  -6   6   46.26    5.30
  -1   6  -6  143.57   10.45
   1  -6   6  154.43   10.84
   2  -6   6   56.80    5.41
  -2   6  -6   54.73    5.45
  -3   6  -6   16.28    2.46
   3  -6   6   18.38    2.82
   4  -6   6  275.46   15.66
  -4   6  -6  261.43   15.75
  -5   6  -6   49.94    4.57
  -6   6  -6   21.19    2.95
  -6   6  -6   21.80    2.74
  -7   6  -6   64.62    5.00
  -7   6  -6   48.64    4.45
  -8   6  -6    1.71    0.88
  -8  -6  -6    0.95    0.69
  -9   6  -6   29.03    2.61
  -6  -7   6   73.39    5.19
  -5  -7   6   54.56    4.57
  -4  -7   6    1.53    1.00
   2   7  -6   31.09    2.84
   1   7  -6   71.56    4.64
  -1  -7   6   49.29    4.67
   0   7  -6  170.79    9.21
   0  -7   6  135.99    9.06
  -1   7  -6    6.95    1.31
  -2   7  -6   46.39    3.63
  22   0  -7   -0.32    0.70
  21   0  -7    0.24    1.15
  21   0  -7   -0.31    1.13
  20   0  -7   -0.30    1.09
  19   0  -7    0.45    1.46
  18   0  -7    2.51    1.82
  18   0  -7    0.40    1.78
  17   0  -7    0.54    2.05
  17   0  -7    0.87    1.14
  16   0  -7    7.21    3.93
  16   0  -7    1.69    2.39
  16   0  -7    1.29    1.58
  15   0  -7   -3.65    4.87
  15   0  -7    0.57    1.87
  15   0  -7    1.69    1.38
  14   0  -7    2.05    1.67
  14   0  -7    1.81    3.42
  14   0  -7   -1.14    2.06
  14   0  -7    0.69    1.51
  13   0  -7   -0.39    1.40
  13   0  -7   -1.73    2.67
  13   0  -7    0.55    1.97
  13   0  -7   -0.34    1.45
  12   0  -7    1.80    1.52
  12   0  -7   -1.63    3.55
  12   0  -7   -0.52    1.38
  12   0  -7    1.01    1.38
  11   0  -7   -0.67    1.20
  11   0  -7   -1.52    4.06
  11   0  -7    2.42    1.83
  11   0  -7   -0.32    1.28
  10   0  -7    2.13    1.29
  10   0  -7    1.41    2.18
  10   0  -7   -0.45    1.84
  10   0  -7    1.86    1.43
  10   0  -7   -0.69    1.40
   9   0  -7    0.37    1.20
   9   0  -7   -0.28    0.97
   9   0  -7   -0.42    1.45
   9   0  -7    1.57    1.14
   8   0  -7   -1.23    3.55
   8   0  -7    1.37    1.18
   7   0  -7    1.16    1.79
   7   0  -7   -1.17    1.65
   6   0  -7    1.09    2.39
   6   0  -7    0.37    1.40
   5   0  -7   -2.08    3.59
   5   0  -7   -0.36    1.45
   4   0  -7    1.36    1.44
   3   0  -7   -0.98    2.39
   3   0  -7    1.31    1.52
   2   0  -7   -0.32    1.21
   1   0  -7    0.64    1.31
   0   0   7    2.68    2.76
   1   0   7    0.92    2.65
   2   0   7   -0.96    2.35
   3   0   7   -1.01    1.92
   4   0   7   -1.08    2.88
  -4   0  -7    1.18    1.12
  -4   0  -7   -1.13    1.30
  -4   0  -7    0.33    1.36
   5   0   7    1.16    1.27
  -5   0  -7    1.21    1.25
  -5   0  -7    0.70    1.15
   6   0   7    2.50    3.05
  -6   0  -7   -0.44    1.06
  -6   0  -7    0.37    1.26
   7   0   7   -1.35    2.94
  -7   0  -7   -0.47    1.35
  -7   0  -7    0.37    1.39
  -8   0  -7    1.00    1.44
  -8   0  -7   -0.37    1.44
   8   0   7   -1.44    3.15
   9   0   7   -1.53    2.37
  -9   0  -7    2.11    1.63
  -9   0  -7   -0.36    1.30
  10   0   7    3.18    3.01
 -10   0  -7   -1.09    1.88
  11   0   7   -1.60    3.02
 -11   0  -7   -0.54    1.68
  12   0   7   -1.57    0.01
 -12   0  -7    1.58    1.82
 -13   0  -7    1.23    1.68
 -13   0  -7    0.50    1.63
 -14   0  -7    0.37    1.34
 -14   0  -7   -0.90    1.90
 -15   0  -7   -0.32    1.56
 -15   0  -7    1.16    1.80
  15   0   7    0.36    1.37
 -16   0  -7    0.78    1.26
 -16   0  -7    0.63    1.24
  16   0   7    0.30    1.19
 -17   0  -7   -0.96    1.12
 -18   0  -7   -0.37    0.66
  22  -1  -7   11.68    1.68
 -22  -1   7    3.04    1.13
  22   1  -7    8.37    1.42
 -22   1   7    5.76    1.41
  21  -1  -7    7.36    1.79
  21   1  -7    5.89    1.50
  20  -1  -7   37.98    4.51
  19   1  -7  118.19    9.51
  19  -1  -7  128.37    9.85
  18   1  -7   53.33    6.47
  18  -1  -7   48.16    6.35
  18  -1  -7   42.07    4.96
  18  -1  -7   63.33    6.42
  18   1  -7   53.70    5.80
  17   1  -7  165.96   13.35
  17  -1  -7  140.70   12.83
  17  -1  -7  154.27   11.37
  17   1  -7  183.44   12.53
  16   1  -7   18.76    3.60
  16  -1  -7   19.44    6.46
  16   1  -7   20.03    4.16
  16  -1  -7   18.91    4.09
  16  -1  -7   19.40    3.45
  16   1  -7   18.91    6.29
 -15  -1   7   62.05   12.30
 -15   1   7   58.95   11.95
  15   1  -7   98.37   16.24
  15  -1  -7   70.33   13.43
  15   1  -7   78.66    8.97
  15  -1  -7   84.13    9.07
  15  -1  -7  100.71    8.25
  15   1  -7   82.70    7.15
  15   1  -7   98.86    8.48
  15  -1  -7   95.20    8.57
  14   1  -7   89.56   15.31
  14  -1  -7   84.60   15.16
  14   1  -7  117.79   10.51
  14  -1  -7  113.28   10.57
  14  -1  -7  103.53    8.86
  14   1  -7   94.87    8.01
  14  -1  -7  105.99    9.29
  13  -1  -7   21.26    3.69
  13   1  -7   28.72    8.89
  13  -1  -7   20.78    7.38
  13   1  -7   16.08    3.94
  13  -1  -7   26.91    4.81
  13  -1  -7   13.98    3.17
  13   1  -7   19.46    3.19
  12   1  -7  102.32   15.42
  12  -1  -7   83.63   14.18
  12   1  -7   78.49    8.38
  12  -1  -7   88.86    8.78
  12   1  -7   78.38    7.30
  12   1  -7   71.50    7.68
  12  -1  -7   78.64    7.40
  12   1  -7   86.18    7.17
  12  -1  -7   78.28    7.46
  11   1  -7  295.50   28.00
  11  -1  -7  303.29   28.29
  11   1  -7  325.37   20.31
  11  -1  -7  332.42   20.49
  11   1  -7  289.97   18.98
  11  -1  -7  289.91   18.57
  11  -1  -7  294.88   18.72
  11   1  -7  290.65   18.57
  10  -1  -7    5.24    1.80
  10   1  -7    4.61    1.81
  10   1  -7    5.60    4.05
  10  -1  -7    1.44    2.73
  10   1  -7    7.62    2.64
  10  -1  -7    5.98    2.36
  10  -1  -7    3.72    1.58
   9  -1  -7  312.29   26.11
   9  -1  -7  243.18   16.17
   9   1  -7  299.54   25.51
   9  -1  -7  255.33   16.01
   8   1  -7   75.74    7.19
   8  -1  -7   81.58    7.28
   8   1  -7   92.15   12.51
   8  -1  -7   84.40   12.57
   8  -1  -7   87.82    7.19
   7   1  -7   68.05   10.42
   7  -1  -7   54.31    9.68
   7   1  -7   43.23    4.80
   7  -1  -7   51.17    5.79
   7   1  -7   49.46    5.63
   6   1  -7  198.09   18.70
   6  -1  -7  192.37   18.58
   6  -1  -7  176.42   12.85
   6   1  -7  182.14   12.96
   5   1  -7   64.29    9.73
   5  -1  -7   58.12    9.56
   5   1  -7   57.18    5.95
   5  -1  -7   65.89    6.34
   4   1  -7  368.73   28.11
   4  -1  -7  367.64   28.01
   4   1  -7  356.83   21.86
   4  -1  -7  379.57   22.02
   3   1  -7  642.42   37.18
   3  -1  -7  597.96   33.56
   3   1  -7  599.34   33.69
   2   1  -7  121.84   11.10
   2   1  -7  117.70    8.98
   2  -1  -7  109.64    8.74
   1   1  -7  418.95   26.70
   1   1  -7  426.85   24.27
   1  -1  -7  404.31   24.14
  -1  -1   7  473.01   30.66
  -1   1   7  387.51   29.34
   0   1  -7  446.48   28.41
   0   1   7  476.75   32.52
   0  -1   7  460.77   31.84
  -1   1  -7  255.16   17.92
  -1   1  -7  219.67   20.20
  -1  -1  -7  248.21   20.98
   1   1   7  238.07   20.57
   1  -1   7  279.72   21.67
  -2   1  -7  433.23   27.89
  -2   1  -7  444.25   31.99
  -2  -1  -7  505.64   33.37
   2  -1   7  458.21   32.12
   2   1   7  416.87   31.51
   3   1   7   -1.02    2.23
  -3  -1  -7   -0.89    1.38
  -3   1  -7   -0.57    1.24
  -3   1  -7   -1.03    2.25
  -3   1  -7    0.35    1.26
  -3  -1  -7   -0.36    1.17
  -3  -1  -7    2.13    2.33
  -3  -1  -7    2.72    1.44
   3  -1   7    1.01    2.21
  -4   1  -7  247.51   21.94
  -4  -1  -7  246.79   22.03
  -4   1  -7  222.85   17.24
  -4   1  -7  244.49   15.80
  -4  -1  -7  242.48   15.87
  -4  -1  -7  255.18   15.85
   4  -1   7  245.09   21.97
  -4   1  -7  247.23   15.83
   4   1   7  257.00   21.98
  -4  -1  -7  207.38   14.91
   5   1   7   96.40   13.34
  -5   1  -7  111.79   14.24
  -5  -1  -7  118.17   14.67
  -5   1  -7  117.29    9.47
  -5  -1  -7  118.08    9.59
  -5  -1  -7  127.67    9.56
   5  -1   7  101.76   13.52
  -5  -1  -7   96.34    8.64
   6   1   7   -1.26    2.75
   6  -1   7   -1.25    2.37
  -6  -1  -7    0.38    1.09
  -6   1  -7    3.79    3.64
  -6  -1  -7    2.61    2.85
  -6   1  -7   -0.43    1.32
  -6  -1  -7    0.44    1.07
  -6  -1  -7    1.60    1.51
   7   1   7   31.08    8.00
   7  -1   7   34.98    8.11
  -7   1  -7   37.85    8.66
  -7   1  -7   37.83    5.10
  -7  -1  -7   39.44    5.38
  -7  -1  -7   41.95    9.20
  -7  -1  -7   41.92    5.17
  -7  -1  -7   29.96    4.77
   8  -1   7   44.49    9.75
  -8   1  -7   41.19    5.58
  -8  -1  -7   42.40    5.75
  -8  -1  -7   42.48    5.35
  -8   1  -7   37.49    8.58
  -8  -1  -7   47.69   10.24
   8   1   7   38.88    9.26
  -8  -1  -7   44.04    5.58
   9   1   7   24.34    7.27
   9  -1   7   15.18    5.79
  -9  -1  -7   15.86    3.44
  -9  -1  -7    7.87    4.92
  -9   1  -7   17.87    3.69
  -9  -1  -7   14.17    3.43
  -9  -1  -7   19.32    3.56
  -9   1  -7   10.67    5.31
  10   1   7   14.00    5.41
  10  -1   7    9.31    5.12
 -10  -1  -7   15.15    3.39
 -10  -1  -7   14.60    5.64
 -10   1  -7   11.53    3.04
 -10  -1  -7   15.60    3.54
 -10  -1  -7   12.79    2.87
 -10   1  -7   20.44    6.45
  11   1   7   18.64    7.01
  11  -1   7   29.41    7.57
 -11  -1  -7   46.28    5.73
 -11   1  -7   37.31    5.68
 -11  -1  -7   43.67    5.99
 -11  -1  -7   35.64    8.84
 -11  -1  -7   35.46    4.65
 -11   1  -7   32.92    8.04
 -12   1  -7  168.05   12.95
 -12  -1  -7  191.65   13.56
 -13   1  -7   27.36    4.55
 -13  -1  -7   27.18    4.64
 -14   1  -7   35.24    4.95
 -14  -1  -7   32.39    4.70
  14   1   7   38.84    4.99
  14  -1   7   37.53    4.92
 -14   1  -7   26.32    3.89
 -15   1  -7   92.02    7.62
 -15   1  -7   99.80    8.24
 -15  -1  -7   96.33    8.25
  15   1   7   92.03    7.94
  15  -1   7   84.12    7.84
 -16   1  -7   63.66    6.02
 -16  -1  -7   65.81    5.99
  16   1   7   51.90    5.68
  16  -1   7   51.87    5.60
 -16   1  -7   67.47    5.62
 -17  -1  -7   16.58    2.21
 -17   1  -7   20.61    2.55
 -18   1  -7   23.00    2.33
  21   2  -7   64.48    4.65
  21  -2  -7   49.14    4.85
  20  -2  -7    3.67    1.49
  20   2  -7    0.88    1.02
  19  -2  -7   87.75    7.95
  19  -2  -7  115.71    8.46
  19   2  -7   71.64    7.53
  19  -2  -7   87.39    8.04
  19   2  -7  115.61    8.02
  18  -2  -7   88.80    7.79
  18   2  -7   74.51    7.58
  18  -2  -7   75.69    7.77
  18   2  -7   98.27    7.73
  17   2  -7    1.42    1.50
  17  -2  -7   -0.36    1.61
  16  -2  -7  177.35   12.91
  16  -2  -7  179.67   13.34
  16   2  -7  167.10   12.48
  15  -2  -7  481.98   29.37
  15  -2  -7  492.52   29.93
  15   2  -7  531.29   29.41
  14   2  -7   21.91    3.71
 -14  -2   7   19.21    5.66
 -14   2   7   27.39    6.73
  14   2  -7    4.92    3.20
  14  -2  -7   18.71    3.69
  14  -2  -7   20.15    3.97
  14  -2  -7   22.14    6.75
  13  -2  -7  768.55   55.69
 -13  -2   7  675.23   51.13
 -13   2   7  717.11   51.57
  13   2  -7  684.99   53.61
  13  -2  -7  853.81   43.52
  13   2  -7  766.95   41.48
  13  -2  -7  797.11   43.71
  13   2  -7  774.66   42.66
  12   2  -7  295.76   28.05
  12  -2  -7  278.90   27.93
  12   2  -7  291.01   19.06
  12  -2  -7  304.77   19.20
  12  -2  -7  269.80   19.04
  12   2  -7  306.59   18.96
  11   2  -7   66.19   11.81
  11  -2  -7   61.37   11.81
  11   2  -7   89.81    7.80
  11  -2  -7   72.07    7.28
  11  -2  -7   71.62    7.52
  10   2  -7  473.98   37.25
  10  -2  -7  487.82   38.21
  10   2  -7  468.04   28.30
  10  -2  -7  479.20   28.32
  10  -2  -7  466.21   28.54
  10   2  -7  513.87   29.52
  10  -2  -7  525.03   29.74
   9   2  -7   15.54    5.55
   9  -2  -7   14.87    5.60
   9  -2  -7   22.71    3.56
   9   2  -7   17.93    3.60
   9  -2  -7   17.61    3.57
   9   2  -7   20.27    3.43
   8   2  -7  437.99   32.72
   8  -2  -7  448.69   33.62
   8   2  -7  448.92   24.28
   8  -2  -7  408.83   24.41
   8   2  -7  427.02   24.54
   8  -2  -7  379.51   24.11
   8   2  -7  394.80   24.90
   8  -2  -7  428.38   25.42
   7   2  -7  336.25   20.33
   7  -2  -7  343.26   20.38
   7   2  -7  355.13   27.89
   7  -2  -7  356.89   28.38
   7   2  -7  342.71   19.91
   7  -2  -7  356.60   21.32
   7  -2  -7  334.06   20.37
   7   2  -7  387.02   21.04
   7  -2  -7  298.79   19.74
   7  -2  -7  318.41   20.17
   7   2  -7  335.66   20.98
   6   2  -7  142.00   15.33
   6  -2  -7  123.29   14.78
   6   2  -7  128.03    9.59
   6  -2  -7  130.82    9.65
   6   2  -7  135.61    9.36
   6  -2  -7  126.61   10.11
   6   2  -7  142.15   10.35
   6  -2  -7  131.98    9.79
   6   2  -7  127.94    9.72
   6  -2  -7  118.04    9.43
   5   2  -7 1012.96   62.15
   5  -2  -7 1041.43   62.94
   5   2  -7 1139.33   61.85
   5   2  -7 1040.12   54.01
   5  -2  -7 1030.91   54.50
   5   2  -7 1088.13   54.94
   5  -2  -7  958.48   54.76
   5  -2  -7 1053.62   54.57
   5   2  -7 1024.74   54.93
   4   2  -7  292.25   21.83
   4   2  -7  258.99   15.92
   4   2  -7  261.76   16.71
   4   2  -7  283.60   16.92
   4  -2  -7  261.02   16.45
   4  -2  -7  263.20   16.81
   3   2  -7  642.95   34.72
   3   2  -7  686.53   40.48
   3  -2  -7  614.63   34.57
   3  -2  -7  611.72   34.34
   2   2  -7  519.97   33.91
  -2  -2   7  518.96   34.79
  -2   2   7  506.07   34.77
   1   2  -7   18.36    4.61
   1  -2  -7   18.03    2.98
  -1   2   7   15.35    4.60
  -1  -2   7   20.10    5.12
   0   2  -7  355.56   24.74
   0  -2  -7  332.83   19.65
   0   2  -7  336.51   20.03
   0   2   7  336.10   25.28
   0  -2   7  321.55   24.59
   0  -2  -7  291.55   18.99
  -1   2  -7 1001.66   57.17
   1  -2   7  976.05   58.04
  -1  -2  -7 1011.87   51.73
   1   2   7  974.19   58.23
  -1  -2  -7  889.71   50.85
  -1   2  -7 1010.19   52.15
   2   2   7    6.88    3.40
   2  -2   7    5.77    2.79
  -2  -2  -7    4.48    1.80
  -2   2  -7    6.35    2.09
  -2   2  -7    4.37    1.57
  -2  -2  -7    4.55    1.59
  -3   2  -7  621.78   41.08
  -3  -2  -7  572.53   41.03
   3   2   7  601.30   41.12
  -3   2  -7  650.07   35.39
   3  -2   7  646.38   41.54
  -3  -2  -7  602.42   34.13
  -4  -2  -7  398.99   23.76
  -4   2  -7  381.08   29.44
  -4  -2  -7  397.52   30.61
  -4   2  -7  418.02   24.32
   4   2   7  350.99   29.22
   4  -2   7  383.63   29.75
  -4  -2  -7  368.54   22.86
   5   2   7   15.26    5.49
   5  -2   7   12.75    5.12
  -5   2  -7   19.41    3.83
  -5   2  -7   19.50    5.79
  -5  -2  -7   23.22    6.72
  -5   2  -7   12.63    2.79
  -5  -2  -7   19.40    3.40
  -5  -2  -7   16.63    3.32
  -6   2  -7  460.69   27.06
  -6  -2  -7  427.67   27.07
   6  -2   7  406.99   33.91
  -6  -2  -7  497.22   27.83
  -6   2  -7  459.87   34.55
  -6  -2  -7  459.64   35.19
   6   2   7  456.96   34.84
   7  -2   7    6.56    3.54
  -7   2  -7   12.87    2.78
  -7  -2  -7   14.90    3.19
  -7   2  -7   11.65    4.71
  -7  -2  -7    8.25    4.53
  -7  -2  -7   14.12    3.48
   7   2   7    3.98    2.94
  -8   2  -7  382.21   32.22
  -8  -2  -7  359.17   32.15
  -8   2  -7  430.06   24.96
  -8  -2  -7  374.28   24.72
  -8  -2  -7  424.52   25.11
   8   2   7  423.57   33.87
   8  -2   7  358.87   32.82
  -9   2  -7  158.41   17.87
  -9  -2  -7  124.10   16.65
  -9   2  -7  126.59   11.09
  -9  -2  -7  129.39   11.45
  -9  -2  -7  156.65   11.74
   9   2   7  111.80   16.06
   9  -2   7  121.72   16.27
  -9  -2  -7  160.04   11.76
  10   2   7   63.53   10.66
  10  -2   7   57.24   10.10
 -10  -2  -7   54.42   10.24
 -10   2  -7   43.18    5.93
 -10  -2  -7   49.92    6.36
 -10  -2  -7   51.26    6.15
 -10   2  -7   50.12    9.61
 -10  -2  -7   72.74    7.07
 -11   2  -7  182.64   14.14
 -11  -2  -7  195.10   14.55
 -11  -2  -7  186.02   13.74
 -11  -2  -7  210.65   14.23
 -12  -2  -7   30.41    4.24
 -12   2  -7   25.06    4.24
 -12  -2  -7   26.31    4.28
 -12  -2  -7   35.72    4.63
 -13   2  -7  114.47    9.63
 -13  -2  -7  139.14   10.30
 -13  -2  -7  109.06    9.07
  13   2   7  124.44    9.69
  13  -2   7   94.39    9.13
 -13   2  -7  135.91   10.51
 -13  -2  -7  142.76    9.93
 -14   2  -7   97.65    8.22
 -14  -2  -7  109.63    8.64
 -14  -2  -7   96.40    7.72
  14   2   7  103.88    8.35
  14  -2   7   88.37    7.97
 -14   2  -7   99.36    8.56
 -15   2  -7    8.88    2.05
 -15   2  -7    6.97    1.87
  15   2   7   12.48    2.31
  15  -2   7    7.77    1.95
 -16  -2  -7  127.36    9.00
 -16   2  -7  115.75    8.88
 -16   2  -7  134.52    8.79
 -17  -2  -7   83.93    5.34
  20  -3  -7  113.47    7.91
  19   3  -7   48.87    4.39
  18   3  -7   76.41    6.32
  17  -3  -7  352.31   22.15
  17   3  -7  369.00   21.15
  16  -3  -7   97.24    9.07
  16  -3  -7   82.23    8.12
  16   3  -7   86.94    7.50
  15  -3  -7  209.42   14.68
  15   3  -7  190.00   13.48
  15  -3  -7  211.42   14.89
  14  -3  -7  327.08   20.21
  14  -3  -7  328.62   20.42
  14   3  -7  355.26   19.57
  13   3  -7   20.95    3.67
  13  -3  -7   17.05    3.53
  13  -3  -7   11.88    3.72
  13  -3  -7   15.30    3.62
  12   3  -7  237.29   15.84
  12  -3  -7  260.31   16.74
  12  -3  -7  226.37   16.23
  11   3  -7  137.64   10.66
  11  -3  -7  138.96   11.41
  11  -3  -7  114.99   10.23
  10  -3  -7    1.85    1.75
  10  -3  -7   -0.83    1.75
  10   3  -7   -0.39    1.35
   9   3  -7  889.77   48.11
  -9  -3   7  891.04   46.97
   9  -3  -7  919.01   49.07
   9   3  -7  922.57   48.45
   9  -3  -7  870.62   48.64
   9  -3  -7  857.35   48.12
  -8  -3   7  216.82   13.92
   8  -3  -7  223.58   15.44
   8  -3  -7  208.38   14.57
   8   3  -7  252.13   15.42
   8  -3  -7  204.55   14.80
  -7  -3   7  114.28    8.75
   7  -3  -7  130.11   10.15
   7   3  -7  130.19    9.80
   7  -3  -7  116.26    9.35
   7  -3  -7  104.09    8.95
   6   3  -7  275.72   17.85
  -6  -3   7  295.02   17.85
   6  -3  -7  278.35   18.61
   6   3  -7  324.28   18.91
   6  -3  -7  292.68   18.65
   5   3  -7   27.63    6.56
   5   3  -7   38.66    4.46
  -5  -3   7   32.48    4.07
   5  -3  -7   31.40    4.51
   5   3  -7   36.22    4.65
   5  -3  -7   37.40    4.69
  -5  -3   7   26.92    6.04
   4   3  -7  575.15   36.99
   4   3  -7  521.35   28.62
  -4  -3   7  502.93   28.50
   4  -3  -7  490.95   28.75
   4   3  -7  511.30   29.24
   4  -3  -7  509.33   29.15
  -4  -3   7  438.50   32.77
   3   3  -7  360.45   27.93
   3   3  -7  369.06   21.21
   3  -3  -7  350.53   21.05
   3  -3  -7  330.05   20.90
   3   3  -7  390.23   22.18
  -3  -3   7  338.71   25.32
   2   3  -7  159.68   16.37
   2   3  -7  152.90   10.86
   2  -3  -7  142.28   10.72
   2   3  -7  159.08   11.58
  -2  -3   7  157.03   14.58
   1   3  -7 1135.03   65.87
   1  -3  -7 1109.35   57.69
   1   3  -7 1145.81   58.41
  -1  -3   7  934.57   61.26
   0   3  -7  389.17   23.22
   0   3  -7  366.67   28.77
   0  -3  -7  368.01   22.45
   0  -3   7  362.32   26.50
  -1   3  -7  290.82   23.56
  -1   3  -7  254.90   17.26
  -1  -3  -7  246.91   16.75
   1  -3   7  255.13   20.59
  -2  -3  -7  791.20   43.83
  -2   3  -7  814.03   44.42
  -2  -3  -7  778.49   43.29
   2  -3   7  796.38   49.06
  -3  -3  -7   12.32    2.83
  -3   3  -7   15.30    3.40
  -3  -3  -7   12.19    3.07
  -4  -3  -7  392.15   23.78
  -4   3  -7  388.37   24.38
  -4  -3  -7  357.29   22.70
  -5  -3  -7  347.38   21.56
  -6  -3  -7    3.33    2.04
   7  -3   7  525.35   27.99
  -7  -3  -7  533.12   30.49
  -7  -3  -7  550.98   29.84
  -8  -3  -7   43.50    5.45
   8  -3   7   47.28    4.67
  -8  -3  -7   59.68    6.97
  -8  -3  -7   52.25    5.95
  -9  -3  -7   43.47    5.19
  -9  -3  -7   41.91    5.74
  -9  -3  -7   47.46    5.58
 -10  -3  -7  197.90   13.83
 -10   3  -7  209.75   14.83
 -10  -3  -7  210.88   13.38
 -11  -3  -7   43.55    4.96
 -11  -3  -7   32.14    4.79
 -11   3  -7   38.02    5.48
 -12  -3  -7  283.22   18.79
 -12   3  -7  299.47   19.74
 -12  -3  -7  327.59   18.67
 -13  -3  -7  263.59   14.84
 -13   3  -7  269.99   15.81
 -14   3  -7   12.51    2.49
 -14  -3  -7   15.63    2.22
 -14  -3  -7    8.35    2.04
 -15   3  -7   91.64    6.98
  18  -4  -7   78.14    6.06
  18   4  -7   75.29    5.18
  17   4  -7    0.54    0.91
  17  -4  -7   -0.27    1.15
  16  -4  -7  107.77    8.92
  16   4  -7  117.49    8.09
  15  -4  -7   54.32    6.14
  15   4  -7   62.37    5.46
  14  -4  -7   50.48    6.28
  14   4  -7   60.65    5.72
  13  -4  -7  322.86   21.31
  13   4  -7  336.15   20.21
  12  -4  -7   29.34    4.82
  11   4  -7   75.43    7.11
  11  -4  -7   84.89    8.80
  11  -4  -7   79.65    8.23
  10   4  -7  395.36   23.88
  10  -4  -7  402.40   25.32
  10  -4  -7  408.53   25.24
   9   4  -7    0.73    1.38
  -9  -4   7   -0.29    1.24
   9  -4  -7    2.34    1.77
   9  -4  -7   -1.97    2.15
   9   4  -7   -0.36    1.38
   8   4  -7  483.18   26.49
  -8  -4   7  418.68   25.59
   8  -4  -7  454.96   27.61
   8   4  -7  449.07   26.19
   8  -4  -7  435.28   26.83
   7   4  -7   78.64    7.06
  -7  -4   7   63.70    6.49
   7  -4  -7   73.27    7.89
   7   4  -7   80.55    7.15
   7  -4  -7   62.76    6.87
   6   4  -7    9.45    2.51
   6   4  -7    8.15    2.47
  -6  -4   7    7.39    2.31
   6  -4  -7    8.65    2.80
   6  -4  -7   11.04    2.53
  -6  -4   7   11.25    4.12
  -5  -4   7  269.21   17.13
   5  -4  -7  267.48   17.87
   5   4  -7  281.08   17.58
   5  -4  -7  259.91   17.81
  -5  -4   7  233.79   22.39
  -4  -4   7  212.66   13.83
   4  -4  -7  171.13   13.44
   4   4  -7  201.28   13.95
   4  -4  -7  196.15   14.09
   3   4  -7   98.32    8.41
  -3  -4   7   96.76    8.47
   3  -4  -7   91.89    8.39
   3   4  -7  105.07    8.90
   3  -4  -7  106.22    9.08
   2   4  -7  211.87   21.20
   2   4  -7  221.77   14.91
  -2  -4   7  226.21   15.21
   2  -4  -7  200.89   14.32
   2   4  -7  237.67   15.66
   2  -4  -7  233.89   15.65
   1   4  -7    8.68    2.76
   1   4  -7    7.43    3.61
   1   4  -7   13.52    2.85
   1  -4  -7    6.52    2.14
   1  -4  -7   13.43    3.00
   0   4  -7  458.43   35.04
   0  -4  -7  461.09   27.04
   0  -4  -7  435.02   27.10
   0   4  -7  486.52   27.87
  -1   4  -7  273.53   24.90
   1  -4   7  276.21   17.98
  -1  -4  -7  258.80   17.76
  -1  -4  -7  275.05   18.05
  -1   4  -7  284.55   18.58
  -2   4  -7  138.10   16.25
   2  -4   7  138.78   10.45
  -2   4  -7  127.65   10.84
  -2  -4  -7  121.32   10.49
  -2  -4  -7  126.09   10.42
  -3   4  -7  582.55   43.20
  -3   4  -7  624.58   35.90
   3  -4   7  631.00   34.62
  -3  -4  -7  600.31   35.33
  -3  -4  -7  610.66   35.06
  -4   4  -7  153.05   12.63
   4  -4   7  143.59   10.99
  -4  -4  -7  154.31   12.29
  -4  -4  -7  177.38   12.38
  -5   4  -7   29.01    4.75
  -5  -4  -7   29.15    4.42
   5  -4   7   28.96    3.90
  -5  -4  -7   24.87    4.42
   6  -4   7  430.45   24.93
  -6  -4  -7  438.44   27.21
  -6  -4  -7  445.05   26.46
  -6   4  -7  457.78   27.67
  -7   4  -7   16.29    3.63
   7  -4   7   14.20    2.43
  -8   4  -7  341.92   22.47
  -9  -4  -7  212.73   15.53
  -9   4  -7  241.72   16.46
 -10   4  -7    1.69    1.66
 -10  -4  -7    2.02    1.38
 -10  -4  -7   -0.38    1.55
 -11  -4  -7  227.27   15.04
 -11  -4  -7  222.65   13.94
 -11   4  -7  246.48   15.75
 -12  -4  -7  148.47   10.29
 -12   4  -7  140.98   10.43
 -13  -4  -7   37.38    3.85
 -14  -4  -7   87.09    6.17
  15  -5  -7   18.59    2.58
  15   5  -7   21.06    2.24
  14  -5  -7   99.10    7.81
  14   5  -7  109.03    7.12
  13   5  -7    2.56    1.30
  13  -5  -7    0.30    1.22
  12  -5  -7   92.21    8.01
  12   5  -7   99.85    7.49
  11  -5  -7   64.47    6.59
 -10  -5   7   12.27    2.23
  10  -5  -7   11.74    2.69
  -9  -5   7  150.89   10.40
   9   5  -7  154.89   10.17
   9  -5  -7  133.78   10.74
   8   5  -7   42.61    4.74
   8   5  -7   41.88    4.28
   8  -5  -7   28.74    4.19
   7   5  -7   78.61    7.18
   7   5  -7   85.73    6.95
   6   5  -7  147.68   10.73
  -6  -5   7  143.25   10.65
   6   5  -7  144.03   10.35
   5   5  -7    4.54    1.71
   5   5  -7    2.80    1.63
  -5  -5   7    4.15    2.00
   4   5  -7  386.40   22.09
  -4  -5   7  336.02   21.73
   4   5  -7  365.04   21.78
   3   5  -7   84.34    7.47
  -3  -5   7   78.19    7.43
   3   5  -7   80.87    7.28
  -2  -5   7   59.99    6.33
   2   5  -7   56.44    5.94
   1   5  -7   21.48    3.59
   1  -5  -7   26.88    4.04
   0   5  -7  109.71    8.74
   0  -5   7  114.18    9.05
   0  -5  -7  106.83    8.76
   0   5  -7  101.02    8.54
  -1   5  -7   14.13    3.06
  -1   5  -7   18.53    3.28
   1  -5   7   21.23    3.62
  -1  -5  -7    9.24    2.31
  -1  -5  -7   21.37    3.50
   2  -5   7  141.84   10.34
  -2  -5  -7  111.86    9.77
  -2  -5  -7  148.18   10.68
  -2   5  -7  146.56   10.86
  -3  -5  -7   53.55    6.07
  -3  -5  -7   62.08    6.26
  -3   5  -7   64.80    6.67
   4  -5   7  370.85   20.72
  -4  -5  -7  324.18   21.20
  -4  -5  -7  351.94   21.03
  -4   5  -7  349.51   21.71
   5  -5   7  129.95    8.93
  -5  -5  -7  109.91    9.59
  -5  -5  -7  125.61    9.36
  -5   5  -7  135.04   10.29
  -6   5  -7   28.93    4.19
  -6  -5  -7   24.29    3.94
  -7  -5  -7  377.43   21.75
  -7   5  -7  338.27   21.57
  -8  -5  -7  193.10   13.17
  -8   5  -7  198.24   13.43
  -9  -5  -7   27.75    3.88
  -9   5  -7   37.92    4.30
 -10   5  -7  116.10    8.43
 -11   5  -7    3.24    1.28
 -12  -5  -7   55.04    3.91
 -12   5  -7   32.00    3.24
  11   6  -7    8.40    1.32
  10   6  -7    7.36    1.45
 -10  -6   7    3.84    0.97
  -9  -6   7    0.32    0.82
  -8  -6   7   25.33    3.07
  -7  -6   7   26.04    3.22
   6   6  -7    0.90    1.07
  -6  -6   7    1.24    1.18
   5   6  -7   64.63    5.50
  -5  -6   7   63.36    5.86
   4   6  -7  113.79    8.06
  -4  -6   7  105.36    8.27
   3   6  -7   39.15    4.11
  -3  -6   7   32.99    4.24
   2   6  -7   32.70    3.81
   1   6  -7    9.07    2.11
   0  -6   7   63.12    5.93
   1  -6   7   26.86    3.50
  -1   6  -7   23.55    2.83
   2  -6   7   47.49    4.68
  -2   6  -7   49.11    4.39
   3  -6   7   62.83    5.18
  -3   6  -7   52.31    4.86
  -4   6  -7    1.51    1.15
  -4   6  -7    1.30    0.89
  -5   6  -7   44.64    3.93
  -5   6  -7   36.43    3.62
  -6   6  -7   15.89    2.20
  -6   6  -7   24.92    2.51
  -7   6  -7    7.07    1.23
  22   0  -8   71.71    5.02
  21   0  -8  160.50   10.19
  20   0  -8   -0.70    1.37
  20   0  -8    0.27    0.93
  19   0  -8   60.81    6.93
  19   0  -8   70.28    6.45
  17   0  -8  148.08   11.27
  17   0  -8  137.77   10.04
  16   0  -8  212.04   14.29
  16   0  -8  226.44   15.34
  15   0  -8   22.52    4.05
  15   0  -8   35.16    9.33
  15   0  -8   25.64    3.80
  14   0  -8  540.22   44.08
  14   0  -8  508.11   29.70
  14   0  -8  527.50   30.36
  13   0  -8  494.95   40.50
  13   0  -8  445.95   26.41
  13   0  -8  449.34   26.71
  12   0  -8   43.86   10.37
  12   0  -8   45.71    5.30
  12   0  -8   45.53    5.29
  11   0  -8  475.48   39.17
  11   0  -8  494.36   27.53
  11   0  -8  451.67   27.03
  10   0  -8   36.38    9.19
  10   0  -8   55.79    6.16
  10   0  -8   57.99    5.79
  10   0  -8   58.64    7.19
  10   0  -8   53.82    5.50
   9   0  -8  125.79    9.99
   9   0  -8  108.93   15.69
   9   0  -8  106.39    9.08
   9   0  -8  130.45   11.05
   9   0  -8  123.56    9.00
   8   0  -8  649.15   46.58
   8   0  -8  646.21   36.47
   8   0  -8  665.17   35.21
   8   0  -8  593.24   35.61
   8   0  -8  721.72   37.97
   7   0  -8  225.60   22.64
   7   0  -8  246.91   15.88
   7   0  -8  237.31   15.10
   7   0  -8  231.17   16.37
   6   0  -8  902.58   56.23
   6   0  -8  822.60   46.04
   6   0  -8  822.00   45.23
   6   0  -8  935.34   47.36
   5   0  -8  463.40   35.61
   5   0  -8  474.14   28.54
   5   0  -8  512.02   28.30
   4   0  -8    9.62    2.33
   4   0  -8   12.77    2.80
   3   0  -8  324.83   19.69
   3   0  -8  319.46   20.11
   2   0  -8  310.63   18.75
   2   0  -8  293.67   18.90
   1   0  -8  746.73   40.95
  -1   0   8  766.15   48.78
   0   0  -8 1959.67  100.75
   0   0   8 1975.38  108.72
  -1   0  -8   71.23    7.08
   1   0   8   86.71   11.83
  -2   0  -8  993.11   52.71
   2   0   8 1088.25   63.43
   3   0   8  381.13   31.03
  -3   0  -8  408.42   23.30
  -4   0  -8  435.46   26.32
   4   0   8  434.51   33.71
  -4   0  -8  432.23   25.25
  -5   0  -8 1600.47   84.02
   5   0   8 1615.51   93.96
  -5   0  -8 1597.20   82.70
  -6   0  -8   98.82    8.94
  -6   0  -8   87.80    7.95
  -7   0  -8 1133.65   61.03
   7   0   8 1048.79   70.77
  -7   0  -8 1129.31   59.86
  -8   0  -8 1767.62   94.95
   8   0   8 1742.58  106.21
  -8   0  -8 1867.62   94.11
   9   0   8  262.08   27.25
  -9   0  -8  310.87   20.45
  -9   0  -8  274.41   18.70
 -10   0  -8  471.46   28.95
  10   0   8  389.81   36.55
 -10   0  -8  479.45   28.00
 -11   0  -8  352.83   24.09
 -11   0  -8  398.20   23.54
 -12   0  -8   39.77    5.48
 -12   0  -8   36.87    4.89
 -13   0  -8  210.31   14.76
 -13   0  -8  195.57   13.75
 -14   0  -8  119.01    9.28
  14   0   8  102.22    8.64
 -14   0  -8  101.69    8.33
  15   0   8  159.90   12.15
 -15   0  -8  208.54   12.08
 -16   0  -8  342.42   18.96
 -17   0  -8    3.52    0.90
 -17   0  -8    1.66    0.91
  21  -1  -8   69.88    5.40
  21   1  -8   63.82    5.19
  20  -1  -8   17.16    3.18
  20   1  -8   13.64    3.08
  20  -1  -8   23.44    3.20
  19  -1  -8    4.17    1.74
  19   1  -8   -0.39    1.27
  19  -1  -8    3.96    1.94
  19   1  -8    3.59    1.53
  18  -1  -8   62.34    5.93
  18   1  -8   66.80    7.33
  18  -1  -8   66.69    7.33
  18   1  -8   71.05    6.70
  17  -1  -8  151.54   11.22
  17  -1  -8  166.76   12.17
  16  -1  -8    8.02    2.45
  16   1  -8    7.95    2.07
  16  -1  -8    9.12    2.58
  15  -1  -8   91.03   14.99
  15   1  -8   78.07   13.85
  15  -1  -8   92.74    8.28
  15   1  -8   91.03    7.58
  14   1  -8   12.01    2.96
  14   1  -8   14.46    5.95
  14  -1  -8   11.11    4.98
  14  -1  -8   11.93    2.84
  14   1  -8   10.65    2.53
  14  -1  -8   13.89    3.00
  13   1  -8  196.79   23.14
  13  -1  -8  180.26   22.80
  13  -1  -8  211.10   14.36
  13   1  -8  209.85   13.79
  13  -1  -8  192.81   14.12
  13   1  -8  199.83   14.09
  12   1  -8  616.22   35.23
  12   1  -8  595.16   47.53
  12  -1  -8  591.38   47.91
  12  -1  -8  651.49   35.73
  12   1  -8  646.22   35.16
  12  -1  -8  628.67   35.53
  11   1  -8   -0.36    1.43
  11   1  -8   -1.64    2.53
  11  -1  -8    3.36    3.18
  11  -1  -8   -2.32    1.79
  11  -1  -8    0.37    1.44
  11   1  -8   -0.55    2.23
  11  -1  -8    2.24    2.11
  10   1  -8  902.60   57.61
  10  -1  -8  824.74   56.99
  10   1  -8  776.28   43.77
  10  -1  -8  815.71   44.25
  10   1  -8  814.23   46.04
  10  -1  -8  834.42   46.30
  10  -1  -8  806.41   43.84
   9   1  -8  521.74   38.57
   9  -1  -8  470.61   37.89
   9  -1  -8  493.68   29.25
   9   1  -8  446.01   27.50
   9  -1  -8  475.83   27.48
   9   1  -8  515.47   29.38
   9  -1  -8  464.45   26.89
   9   1  -8  484.17   27.13
   9   1  -8  464.63   28.04
   9  -1  -8  460.13   27.96
   8   1  -8    0.70    1.38
   8  -1  -8    1.43    1.13
   8   1  -8    1.39    2.63
   8  -1  -8    1.42    3.11
   8   1  -8    1.89    1.63
   8  -1  -8    0.48    1.74
   8   1  -8    0.78    1.13
   8  -1  -8    0.78    1.48
   7   1  -8  522.75   38.31
   7  -1  -8  548.65   39.13
   7   1  -8  523.15   29.05
   7  -1  -8  491.85   28.75
   7  -1  -8  461.81   27.66
   7  -1  -8  487.05   28.22
   7   1  -8  499.56   28.49
   7   1  -8  541.93   29.97
   7  -1  -8  459.73   27.62
   7  -1  -8  568.54   30.36
   6   1  -8   96.21   13.22
   6  -1  -8   86.67   12.79
   6   1  -8  111.10    8.56
   6  -1  -8  105.38    8.51
   6  -1  -8   90.79    8.67
   6   1  -8   98.71    8.74
   6  -1  -8   85.18    7.51
   6   1  -8  108.97    8.31
   6  -1  -8   85.65    7.29
   5   1  -8  582.34   39.78
   5  -1  -8  594.98   40.39
   5   1  -8  599.49   31.97
   5   1  -8  545.52   30.89
   5  -1  -8  514.05   30.65
   5   1  -8  525.43   30.35
   5  -1  -8  527.22   29.91
   5  -1  -8  563.22   31.66
   4   1  -8  453.89   26.63
   4  -1  -8  449.05   26.67
   4   1  -8  436.70   25.67
   4   1  -8  498.44   26.53
   4  -1  -8  444.91   26.21
   4  -1  -8  433.41   25.22
   3   1  -8    0.96    1.05
   3   1  -8    1.02    1.34
   3  -1  -8    0.69    1.19
   3   1  -8    1.16    1.40
   3  -1  -8    0.28    0.93
   3  -1  -8    1.17    1.28
   2   1  -8  507.12   28.70
   2  -1  -8  504.75   28.77
   2   1  -8  474.10   28.21
   2   1  -8  528.27   29.25
   2  -1  -8  506.93   29.16
  -2  -1   8  534.79   36.21
  -2   1   8  493.29   35.66
   1   1  -8  378.57   24.93
   1   1  -8  401.43   22.40
   1  -1  -8  368.52   22.16
   1   1  -8  386.68   22.04
  -1   1   8  417.06   29.70
  -1  -1   8  407.81   29.29
   1  -1  -8  320.58   21.04
   0   1  -8  319.62   21.67
   0   1  -8  298.15   19.21
   0  -1  -8  324.51   19.59
   0   1  -8  313.70   19.07
   0  -1   8  356.24   26.59
   0  -1  -8  294.72   18.40
   0   1   8  332.23   26.25
  -1   1  -8  436.86   29.35
  -1   1  -8  503.02   28.22
  -1  -1  -8  495.48   28.28
  -1  -1  -8  515.03   28.09
  -1  -1  -8  433.88   26.79
   1   1   8  510.06   35.72
   1  -1   8  502.61   35.30
  -1   1  -8  498.30   27.72
  -2  -1  -8    6.34    1.95
  -2   1  -8    6.85    2.06
  -2   1  -8    7.26    2.35
  -2  -1  -8    5.80    1.99
  -2  -1  -8    6.10    2.06
  -2   1  -8    6.98    3.37
   2   1   8    1.17    2.86
   2  -1   8    1.15    2.52
  -3  -1  -8  556.40   30.84
  -3   1  -8  501.96   38.00
  -3  -1  -8  539.13   38.86
  -3   1  -8  554.45   30.61
   3   1   8  529.48   38.72
   3  -1   8  528.36   38.25
  -3  -1  -8  499.75   29.83
   4  -1   8 1648.93   96.82
  -4  -1  -8 1798.88   87.58
  -4   1  -8 1643.58   96.91
  -4  -1  -8 1714.87   97.78
  -4   1  -8 1724.69   87.26
  -4  -1  -8 1690.41   86.67
   4   1   8 1707.03   97.46
  -4   1  -8 1571.27   85.66
   5   1   8   24.35    7.10
   5  -1   8   20.08    6.72
  -5   1  -8   39.36    5.12
  -5   1  -8   40.53    8.74
  -5  -1  -8   44.74    9.41
  -5  -1  -8   31.27    4.61
  -5  -1  -8   28.14    4.55
  -5   1  -8   39.46    5.06
  -5  -1  -8   33.64    4.57
  -5   1  -8   27.50    3.90
  -6   1  -8  874.39   49.39
  -6   1  -8  984.75   51.21
  -6  -1  -8  915.37   51.10
  -6  -1  -8  949.84   50.75
  -6   1  -8  919.47   50.58
  -6   1  -8  920.62   60.92
  -6  -1  -8  979.17   62.19
   6   1   8 1011.01   62.19
   6  -1   8  856.68   60.00
  -6  -1  -8  914.24   50.23
  -7   1  -8  466.63   29.32
   7  -1   8  432.46   38.06
  -7   1  -8  555.20   31.24
  -7  -1  -8  525.43   31.09
  -7  -1  -8  550.40   30.53
   7   1   8  470.29   39.29
  -7   1  -8  517.81   30.35
  -7   1  -8  559.13   41.07
  -7  -1  -8  500.92   30.05
  -7  -1  -8  552.64   41.14
   8  -1   8   18.38    6.26
  -8  -1  -8   11.07    3.11
  -8   1  -8    9.49    2.68
   8   1   8   10.80    5.34
  -8   1  -8    6.58    2.67
  -8  -1  -8    4.69    2.37
  -8   1  -8    4.63    3.78
  -8  -1  -8    3.19    3.04
  -8  -1  -8    6.48    2.34
  -9   1  -8  667.78   49.50
  -9  -1  -8  610.43   48.46
  -9   1  -8  732.54   39.81
  -9  -1  -8  734.13   39.99
  -9  -1  -8  640.47   38.07
  -9   1  -8  620.80   38.27
   9   1   8  665.97   49.76
   9  -1   8  666.01   49.73
  -9  -1  -8  752.62   39.40
 -10   1  -8  162.11   11.76
 -10   1  -8  130.08   18.26
 -10  -1  -8  160.12   19.57
 -10   1  -8  158.28   12.51
 -10  -1  -8  169.37   12.99
 -10  -1  -8  138.69   11.14
 -10   1  -8  127.39   11.18
  10   1   8  133.50   18.19
  10  -1   8  138.51   18.22
 -10  -1  -8  159.79   12.06
 -11   1  -8  309.75   18.33
 -11   1  -8  275.12   18.99
 -11  -1  -8  320.01   19.69
 -11  -1  -8  312.44   18.88
 -12   1  -8  456.33   28.11
 -12  -1  -8  492.57   28.66
 -12  -1  -8  513.02   27.99
 -12   1  -8  545.69   27.79
 -13   1  -8   69.72    7.01
 -13  -1  -8   58.33    6.64
 -13  -1  -8   67.82    6.43
 -13   1  -8   73.17    6.44
 -14   1  -8   92.30    7.65
 -14  -1  -8   78.44    7.32
  14   1   8   71.96    7.01
  14  -1   8   74.42    7.16
 -14  -1  -8  100.93    7.35
 -14   1  -8   84.07    6.79
  15   1   8   84.15    7.14
  15  -1   8   80.43    6.99
 -15   1  -8   96.77    6.74
 -16   1  -8    1.49    0.83
 -16  -1  -8    0.20    0.81
 -16   1  -8    0.40    0.79
  21   2  -8   20.91    2.28
  19  -2  -8   53.60    5.94
  19   2  -8   54.53    5.18
  18   2  -8   15.85    2.89
  18   2  -8   11.85    2.85
  18  -2  -8   18.38    3.45
  18  -2  -8   17.81    3.20
  18  -2  -8   15.58    3.03
  17  -2  -8  167.88   12.06
  17  -2  -8  188.86   12.74
  17   2  -8  151.25   12.44
  17  -2  -8  140.06   12.37
  17   2  -8  198.39   12.44
  16  -2  -8  111.07    9.13
  16  -2  -8  103.02    9.15
  16   2  -8   87.78    9.03
  16  -2  -8   92.03    9.22
  16   2  -8  113.19    8.86
  15  -2  -8   63.29    6.82
  15  -2  -8   68.78    7.08
  15   2  -8   58.44    7.16
  15  -2  -8   56.75    7.13
  15   2  -8   60.64    6.32
  14  -2  -8   25.43    4.80
  14  -2  -8   32.76    4.84
  14   2  -8   36.95    4.08
  14  -2  -8   29.32    4.58
  14   2  -8   26.88    4.71
  13  -2  -8   57.46   11.11
  13   2  -8   52.83    6.64
  13  -2  -8   68.48    7.06
  13   2  -8   57.99    5.73
  13  -2  -8   54.37    6.59
  13   2  -8   51.90    6.84
  13  -2  -8   52.93    6.83
  13   2  -8   76.40   12.48
  12  -2  -8    9.93    3.11
  12   2  -8   12.76    6.30
  12  -2  -8    3.32    3.18
  12   2  -8   10.69    3.08
  12  -2  -8   12.10    3.24
  12  -2  -8   17.30    3.45
  12   2  -8   12.52    3.17
  11   2  -8   83.33   13.60
  11  -2  -8   77.30   13.25
  11   2  -8   70.69    7.51
  11  -2  -8   95.83    8.28
  11  -2  -8   72.94    7.53
  11   2  -8   70.78    8.02
  11  -2  -8   87.13    8.73
  11   2  -8   81.96    7.51
  10   2  -8    7.39    3.96
  10  -2  -8   12.35    4.78
  10  -2  -8    9.54    2.54
  10   2  -8   10.03    2.97
  10  -2  -8    7.78    2.79
  10   2  -8    2.84    1.96
   9   2  -8  352.42   29.91
   9  -2  -8  317.87   29.30
   9  -2  -8  327.88   20.75
   9   2  -8  320.38   20.74
   9  -2  -8  322.18   20.49
   9   2  -8  365.22   22.00
   9  -2  -8  338.73   21.77
   8   2  -8  281.61   26.68
   8  -2  -8  279.38   27.09
   8  -2  -8  320.17   19.62
   8   2  -8  323.68   19.65
   8  -2  -8  291.31   18.87
   8   2  -8  328.78   20.41
   8  -2  -8  311.74   20.34
   7   2  -8   -1.15    1.92
   7   2  -8    2.59    2.82
   7  -2  -8   -1.34    3.88
   7   2  -8    0.62    1.23
   7   2  -8   -0.43    1.57
   7  -2  -8    0.37    1.51
   7  -2  -8   -0.72    1.48
   7  -2  -8    0.45    1.54
   7   2  -8   -0.37    1.27
   7  -2  -8    0.75    1.22
   6  -2  -8  423.12   24.85
   6   2  -8  404.12   24.01
   6  -2  -8  400.94   24.03
   6   2  -8  399.10   23.31
   6  -2  -8  397.35   23.95
   6   2  -8  434.74   24.87
   6  -2  -8  393.78   23.85
   5   2  -8  286.53   17.62
   5   2  -8  293.15   18.32
   5  -2  -8  294.54   18.45
   5   2  -8  317.23   19.07
   5  -2  -8  273.76   18.08
   5  -2  -8  290.43   18.28
   5  -2  -8  314.65   19.16
   4   2  -8   78.83   10.12
   4   2  -8   66.90    5.95
   4   2  -8   73.69    6.84
   4   2  -8   60.33    6.20
   4  -2  -8   71.96    6.59
   4  -2  -8   69.16    6.57
   4  -2  -8   66.88    6.45
   4  -2  -8   73.72    6.99
   3   2  -8   68.24    9.37
   3   2  -8   62.62    5.66
   3  -2  -8   57.75    5.87
   3   2  -8   68.59    6.38
   3  -2  -8   71.31    6.53
   3  -2  -8   70.08    6.41
  -3  -2   8   74.14   10.56
  -3   2   8   55.61    9.90
   2   2  -8   -0.38    1.31
   2   2  -8    0.87    2.67
   2   2  -8    1.60    1.20
   2  -2  -8    0.70    1.32
   2  -2  -8    0.29    1.08
  -2   2   8    1.08    2.35
  -2  -2   8    1.03    1.95
   1   2  -8  387.74   22.99
   1  -2  -8  365.85   22.87
   1   2  -8  401.67   28.25
   1   2  -8  365.46   21.94
   1  -2  -8  423.65   23.61
   1   2  -8  404.48   23.58
  -1   2   8  410.22   30.20
  -1  -2   8  414.94   29.96
   0   2  -8  446.28   30.82
   0   2  -8  499.67   26.32
   0  -2  -8  428.83   25.82
   0   2  -8  428.39   24.64
   0  -2  -8  454.26   26.27
   0   2  -8  456.11   26.38
   0   2   8  425.42   32.46
   0  -2   8  433.86   32.27
   0  -2  -8  419.65   25.56
  -1  -2  -8   18.00    3.11
  -1   2  -8   14.44    3.07
  -1   2  -8   13.44    2.92
  -1  -2  -8   13.61    2.88
  -1   2  -8   13.74    2.35
  -1  -2  -8   14.74    3.03
   1   2   8    6.75    3.54
   1  -2   8   15.25    4.66
   2  -2   8  283.13   24.48
  -2   2  -8  286.70   22.63
  -2   2  -8  305.32   18.68
  -2  -2  -8  288.91   18.58
  -2   2  -8  291.98   18.95
   2   2   8  295.00   25.09
  -2  -2  -8  275.88   18.13
  -3   2  -8  395.46   28.19
  -3   2  -8  405.15   23.92
  -3  -2  -8  365.83   23.67
  -3   2  -8  407.29   24.51
   3   2   8  420.14   31.85
   3  -2   8  364.15   30.35
  -3  -2  -8  390.54   23.48
   4   2   8   20.28    6.09
   4  -2   8   21.03    5.79
  -4  -2  -8   18.16    3.42
  -4   2  -8   25.99    5.25
  -4   2  -8   16.38    3.42
  -4   2  -8   17.74    3.40
  -4  -2  -8   12.85    3.18
  -4  -2  -8   16.69    3.55
  -4  -2  -8   20.91    6.28
   5   2   8  165.15   19.54
  -5  -2  -8  218.63   14.98
  -5   2  -8  195.12   20.21
  -5  -2  -8  192.64   20.64
  -5   2  -8  201.08   14.90
   5  -2   8  195.06   20.56
  -5  -2  -8  190.72   13.84
  -6  -2  -8    2.13    1.86
  -6   2  -8    4.00    3.26
  -6  -2  -8    4.26    3.10
  -6   2  -8    2.50    2.04
   6  -2   8    4.03    2.54
   6   2   8    1.37    2.99
  -6  -2  -8    1.44    1.81
   7   2   8   34.01    7.85
   7  -2   8   33.36    7.55
  -7   2  -8   23.42    6.35
  -7   2  -8   32.59    5.06
  -7  -2  -8   21.93    6.72
  -7  -2  -8   24.77    4.47
   8   2   8  127.91   16.41
  -8  -2  -8  127.65   10.88
  -8   2  -8  122.37   15.74
  -8  -2  -8  125.16   16.37
  -8   2  -8  124.09   11.07
   8  -2   8  130.81   16.04
  -9  -2  -8   53.98    6.36
  -9   2  -8   60.13    6.99
 -10   2  -8   95.12    8.11
 -10  -2  -8  116.49    9.37
 -10   2  -8   91.77    9.12
 -11  -2  -8  124.58    9.71
 -11   2  -8  129.65   10.32
 -11   2  -8  106.07    8.83
 -12  -2  -8    8.87    2.19
 -12   2  -8    5.97    1.85
 -12   2  -8    5.08    1.92
 -12  -2  -8    4.49    1.84
 -13   2  -8   98.83    8.36
  13   2   8  110.61    8.54
  13  -2   8  100.21    8.36
 -13   2  -8  110.23    7.94
 -14  -2  -8   47.76    4.59
 -14   2  -8   48.76    4.66
 -14   2  -8   34.44    4.05
  14   2   8   47.40    4.59
 -14   2  -8   38.91    4.05
 -15   2  -8   14.34    1.96
 -15  -2  -8   13.23    2.09
 -15   2  -8   13.93    2.18
 -16  -2  -8   59.24    4.13
  19   3  -8    7.53    1.59
  19  -3  -8    5.26    1.57
  18   3  -8   15.35    2.45
  18  -3  -8   16.59    2.71
  17  -3  -8   27.80    5.81
  17  -3  -8   22.15    3.59
  17   3  -8   23.92    3.27
  16   3  -8    0.89    1.33
  16  -3  -8    2.48    2.92
  15  -3  -8   12.23    3.30
  15  -3  -8    7.27    2.60
  14   3  -8   10.22    2.41
  14  -3  -8    6.77    2.76
  14  -3  -8    8.23    2.54
  13  -3  -8   42.87    5.62
  13  -3  -8   36.20    5.11
  13  -3  -8   27.50    4.46
  13   3  -8   39.10    4.84
  12  -3  -8   40.16    5.32
  12   3  -8   46.66    5.64
  12  -3  -8   44.85    5.75
  12   3  -8   47.65    5.49
  11   3  -8   43.17    5.36
  11  -3  -8   50.53    5.96
  11  -3  -8   38.30    5.10
  10  -3  -8   16.98    3.40
  10  -3  -8   21.86    4.03
  10  -3  -8   20.20    3.70
  10   3  -8   21.58    3.71
  -9  -3   8   34.39    4.07
   9  -3  -8   43.64    5.53
   9   3  -8   32.97    4.75
   9  -3  -8   32.15    4.51
   9  -3  -8   32.99    4.62
   8   3  -8   58.78    6.05
  -8  -3   8   67.04    5.89
   8  -3  -8   55.61    6.56
   8   3  -8   65.26    6.62
   8  -3  -8   47.91    5.76
   7   3  -8    1.24    1.49
   7   3  -8    0.35    1.15
  -7  -3   8    0.32    1.20
   7  -3  -8    0.86    1.56
   7  -3  -8    0.38    1.42
   6   3  -8   31.02    4.14
  -6  -3   8   37.35    4.51
   6  -3  -8   35.18    5.10
   6   3  -8   38.96    4.97
   6  -3  -8   37.34    4.98
   5   3  -8  215.82   20.20
   5   3  -8  189.59   13.47
  -5  -3   8  219.96   13.94
   5  -3  -8  202.13   14.28
   5   3  -8  194.12   14.22
   5  -3  -8  212.34   14.53
   4   3  -8  168.05   17.34
   4   3  -8  162.82   11.51
   4  -3  -8  156.32   11.80
   4   3  -8  167.78   12.35
   4  -3  -8  164.47   12.32
   3   3  -8    3.39    1.91
   3   3  -8    4.36    2.91
   3   3  -8    2.00    1.32
   3  -3  -8    1.31    1.61
   3  -3  -8    4.50    2.05
   2   3  -8   61.53    9.68
   2   3  -8   58.89    5.84
   2   3  -8   58.51    6.54
   2  -3  -8   69.75    6.90
   1   3  -8  255.80   22.05
   1   3  -8  236.31   15.36
   1  -3  -8  236.86   16.01
   1   3  -8  265.42   16.85
   1  -3  -8  222.98   16.09
   0   3  -8    9.00    2.48
   0   3  -8   11.93    4.12
   0   3  -8    5.86    1.88
   0  -3  -8    7.84    2.53
  -1   3  -8    6.56    2.93
  -1   3  -8    2.78    1.90
  -1  -3  -8    3.89    1.84
  -2   3  -8   12.11    4.01
  -2  -3  -8    8.55    2.50
  -3   3  -8    2.22    1.71
  -3  -3  -8    1.40    1.35
  -4  -3  -8   24.18    4.06
  -4   3  -8   25.41    5.89
  -4  -3  -8   21.40    3.49
  -5  -3  -8    1.72    1.82
  -5   3  -8    1.09    1.19
  -5  -3  -8    1.82    1.32
  -6  -3  -8    0.86    1.69
  -6  -3  -8    1.47    1.33
   6  -3   8    1.88    1.41
  -6  -3  -8    1.49    1.95
  -7  -3  -8    7.67    2.52
  -7   3  -8    4.68    2.07
  -7  -3  -8    5.14    1.86
   7  -3   8    6.15    1.75
  -7  -3  -8    8.72    2.86
  -8  -3  -8    2.08    1.98
  -8   3  -8   -0.51    2.00
  -8  -3  -8   -0.36    1.10
   8  -3   8    0.48    0.97
  -8  -3  -8    0.46    1.75
  -9  -3  -8    7.39    2.38
  -9   3  -8    4.31    2.35
  -9  -3  -8    4.34    2.13
 -10  -3  -8   20.80    3.40
 -10   3  -8   13.03    3.24
 -10  -3  -8   13.36    3.21
 -11  -3  -8   13.54    2.60
 -11   3  -8   12.89    3.03
 -11  -3  -8   13.75    2.78
 -12  -3  -8    2.55    1.45
 -12   3  -8    4.09    1.79
 -12  -3  -8    0.86    1.41
 -13   3  -8    4.67    1.58
 -13  -3  -8    5.39    1.55
 -14   3  -8    4.41    1.22
  17   4  -8    2.18    0.98
  17  -4  -8    1.19    0.99
  16   4  -8   10.17    1.95
  16  -4  -8    9.78    2.23
  15   4  -8    0.94    1.18
  15  -4  -8    4.01    1.72
  14   4  -8   10.85    2.27
  14  -4  -8    9.87    2.52
  13  -4  -8   18.62    3.41
  13   4  -8   19.83    3.17
  12   4  -8   20.96    3.43
  12  -4  -8   21.27    5.58
  12  -4  -8   25.90    4.04
  11   4  -8   49.74    5.34
  11  -4  -8   35.71    6.03
  11  -4  -8   43.57    5.38
  10  -4  -8    0.41    1.48
  10  -4  -8   -1.84    2.75
  10   4  -8    0.35    1.28
  -9  -4   8   11.76    2.48
   9  -4  -8   13.09    3.60
   9  -4  -8   18.00    3.18
   9   4  -8   15.38    3.04
  -8  -4   8    0.31    1.22
   8  -4  -8   -1.40    2.40
   8  -4  -8    0.73    1.13
   8   4  -8   -0.38    1.01
   7   4  -8    2.33    1.64
  -7  -4   8    0.66    1.36
   7  -4  -8    0.46    2.37
  -7  -4   8    2.45    1.89
   6   4  -8    4.44    2.00
  -6  -4   8    9.80    2.47
   6  -4  -8    9.07    2.81
   5   4  -8   28.17    6.67
   5   4  -8   26.32    3.87
  -5  -4   8   25.91    3.90
   5  -4  -8   20.69    4.04
   5   4  -8   30.13    4.27
   4   4  -8   13.88    3.13
   4   4  -8   25.64    6.15
   4   4  -8   15.40    3.03
  -4  -4   8   13.61    3.01
   4  -4  -8   15.41    3.49
   3   4  -8    5.59    2.10
   3   4  -8    2.93    1.75
  -3  -4   8    1.95    1.54
   3  -4  -8    3.98    2.00
   2   4  -8    0.44    1.58
   2   4  -8    3.63    2.28
   2   4  -8    0.37    1.44
  -2  -4   8   -0.40    1.91
   2  -4  -8    0.88    1.67
   1   4  -8    0.45    1.76
   1   4  -8    3.62    2.28
   1   4  -8    3.28    1.64
   1  -4  -8    0.44    1.17
   1  -4  -8   -0.76    1.38
   0   4  -8    1.81    1.49
   0   4  -8    3.63    2.29
   0   4  -8    3.62    1.63
   0  -4  -8    2.41    1.39
   0  -4  -8    3.06    2.03
  -1   4  -8   44.72    8.42
  -1   4  -8   56.88    5.87
   1  -4   8   60.69    6.31
  -1  -4  -8   51.45    5.89
  -1  -4  -8   47.46    5.86
  -1   4  -8   51.11    6.28
  -2   4  -8   99.96   13.69
   2  -4   8  129.97   10.04
  -2  -4  -8  118.78   10.18
  -2  -4  -8  134.06   10.68
  -2   4  -8  128.34   10.73
  -3   4  -8   12.79    3.13
   3  -4   8   11.60    2.82
  -3  -4  -8   14.64    3.19
  -3  -4  -8   16.52    3.51
   4  -4   8  135.27    9.89
  -4  -4  -8  119.68   10.63
  -4  -4  -8  134.48   10.62
  -4   4  -8  124.36   10.88
   5  -4   8  102.73    8.19
  -5  -4  -8  100.97    9.45
  -5  -4  -8  120.04    9.57
  -5   4  -8  102.99    9.57
  -6   4  -8   16.69    3.50
  -6  -4  -8   20.52    3.93
   6  -4   8   19.11    2.80
  -6  -4  -8   15.09    3.15
  -7   4  -8   15.17    3.44
  -7  -4  -8   19.13    3.43
  -8   4  -8   48.07    5.85
  -8  -4  -8   46.98    5.17
  -9   4  -8   -1.13    1.42
  -9  -4  -8   -1.06    1.44
  -9  -4  -8   -0.58    1.37
 -10  -4  -8   21.27    2.81
 -10  -4  -8   15.99    3.01
 -11  -4  -8   10.78    2.27
 -12  -4  -8    0.20    0.93
 -13   4  -8    0.40    0.62
  15   5  -8   25.26    2.33
  14   5  -8    0.15    0.76
  13   5  -8   28.88    3.06
  12   5  -8   60.74    5.17
  11   5  -8    6.20    1.86
 -10  -5   8   83.51    6.33
  -9  -5   8   29.44    3.67
   9   5  -8   35.79    3.79
   8   5  -8   28.11    3.48
   7   5  -8  115.56    8.90
   7   5  -8  118.37    8.69
   6   5  -8   14.49    2.63
   6   5  -8   14.84    2.80
  -6  -5   8   12.52    2.48
  -5  -5   8  110.54    8.42
   5   5  -8   92.57    7.83
  -4  -5   8  101.42    8.58
   4   5  -8  116.35    8.77
   3   5  -8   23.88    3.63
  -3  -5   8   33.18    4.20
   2   5  -8  127.88    9.80
  -2  -5   8  131.68   10.17
   2   5  -8  135.54   10.09
   1   5  -8   20.22    3.41
   1   5  -8   24.97    3.64
   1  -5  -8   16.06    3.36
   0   5  -8   57.98    5.78
   0  -5   8   58.38    6.14
   0   5  -8   56.42    5.93
   0  -5  -8   59.67    6.13
  -1   5  -8   41.59    4.64
   1  -5   8   39.80    4.74
  -1   5  -8   42.90    5.00
  -1  -5  -8   38.04    4.70
  -2   5  -8    1.45    1.43
  -2   5  -8    0.61    1.15
   2  -5   8    0.31    1.30
  -2  -5  -8   -0.95    1.42
  -2  -5  -8    1.71    1.45
  -3   5  -8   61.64    5.62
   3  -5   8   60.52    5.49
  -3  -5  -8   43.98    5.30
  -3  -5  -8   56.53    5.73
  -3   5  -8   63.75    6.13
  -4   5  -8   75.33    6.37
   4  -5   8   77.84    6.17
  -4  -5  -8   69.95    6.74
  -4  -5  -8   76.28    6.66
  -4   5  -8   77.79    7.05
  -5   5  -8    1.34    1.38
  -5   5  -8    4.86    1.58
   5  -5   8    3.92    1.41
  -5  -5  -8    3.17    1.70
  -5  -5  -8    3.02    1.35
  -6   5  -8  123.73    8.68
  -6  -5  -8  130.43    9.74
  -6   5  -8  150.63   10.22
  -7  -5  -8   87.68    7.55
  -7   5  -8  115.66    8.27
  -8   5  -8    2.24    1.22
  -8  -5  -8    1.95    1.10
  -9  -5  -8   94.49    7.05
  -9   5  -8   99.07    7.07
 -10   5  -8   64.46    4.95
  10   6  -8    2.87    0.85
  -9  -6   8   50.66    4.23
   9   6  -8   91.90    5.27
  -8  -6   8   87.13    6.16
  -7  -6   8    7.02    1.51
  -6  -6   8  223.82   13.41
   5   6  -8   22.87    2.78
  -5  -6   8   19.45    2.84
   4   6  -8   54.88    4.65
  -4  -6   8   49.51    4.78
   3   6  -8  171.01   10.50
  -3  -6   8  155.38   10.76
   1   6  -8  120.38    7.66
   0   6  -8  275.26   15.48
   0  -6   8  278.98   15.81
   0   6  -8  248.27   14.74
  -1   6  -8    0.16    0.67
   1  -6   8   -0.40    1.08
  -1   6  -8    0.58    0.94
  -2   6  -8  150.42    9.00
   2  -6   8  146.18    8.90
  -2   6  -8  121.29    8.42
   3  -6   8   73.65    5.45
  -3   6  -8   73.77    5.58
  -4   6  -8    1.44    0.73
  -4   6  -8    1.21    0.76
  -5   6  -8   89.11    5.61
  19   0  -9   -0.74    1.45
  18   0  -9    0.22    0.98
  18   0  -9    0.44    1.60
  17   0  -9   -0.28    1.29
  17   0  -9    0.50    1.90
  17   0  -9   -0.35    1.50
  16   0  -9    0.38    1.49
  16   0  -9    0.56    2.10
  16   0  -9   -0.32    1.40
  15   0  -9    1.18    1.76
  15   0  -9   -0.70    1.58
  15   0  -9   -0.60    1.59
  14   0  -9   -0.40    1.50
  14   0  -9    0.75    1.22
  14   0  -9   -0.62    2.23
  13   0  -9   -0.78    1.53
  13   0  -9    5.58    3.52
  13   0  -9   -0.77    1.93
  13   0  -9    0.62    2.13
  12   0  -9    1.88    1.64
  12   0  -9    3.65    3.45
  12   0  -9    0.39    1.55
  12   0  -9   -1.22    2.66
  11   0  -9    1.43    1.24
  11   0  -9   -1.77    2.73
  11   0  -9    1.96    1.60
  11   0  -9    0.60    1.95
  10   0  -9    0.34    1.21
  10   0  -9   -3.41    4.16
  10   0  -9   -0.38    1.68
  10   0  -9    2.30    1.99
  10   0  -9    0.79    1.36
   9   0  -9   -0.62    1.02
   9   0  -9   -0.55    2.00
   9   0  -9    3.27    3.57
   9   0  -9    3.62    1.78
   9   0  -9    2.24    1.63
   8   0  -9    0.29    1.18
   8   0  -9    1.57    2.42
   8   0  -9   -0.53    1.53
   8   0  -9   -0.44    1.35
   8   0  -9    0.35    1.15
   7   0  -9   -1.52    2.87
   7   0  -9    0.51    1.57
   7   0  -9    0.33    1.15
   7   0  -9    1.72    1.62
   6   0  -9   -0.42    1.30
   6   0  -9   -1.47    2.77
   6   0  -9   -0.49    1.99
   6   0  -9    0.32    1.21
   5   0  -9    0.31    1.06
   5   0  -9   -0.41    1.20
   5   0  -9   -0.47    1.78
   4   0  -9    0.60    0.99
   4   0  -9   -0.83    1.36
   4   0  -9   -0.46    2.00
   3   0  -9    0.30    1.08
   3   0  -9   -0.40    1.07
   3   0  -9    0.90    1.56
   2   0  -9    0.88    0.78
   2   0  -9    0.41    1.47
  -2   0   9   -1.25    3.61
   1   0  -9   -0.29    1.06
   1   0  -9   -0.42    1.20
  -1   0   9    1.25    2.73
   0   0  -9    0.55    0.94
   0   0  -9    1.17    1.06
   0   0  -9    0.43    1.14
   0   0   9    1.27    2.78
  -1   0  -9    0.57    1.13
  -1   0  -9    0.88    1.73
   1   0   9   -1.31    2.02
   2   0   9   -1.34    2.92
  -2   0  -9    0.31    1.11
  -2   0  -9    0.46    1.33
   3   0   9   -1.38    2.62
  -3   0  -9    2.28    1.38
  -3   0  -9    0.49    1.50
   4   0   9    1.44    2.73
  -4   0  -9    0.35    1.42
   5   0   9    1.50    2.83
  -5   0  -9    0.37    1.27
   6   0   9    1.54    2.91
  -6   0  -9    1.16    1.46
   7   0   9   -1.58    3.45
  -7   0  -9   -0.40    1.75
   8   0   9    1.60    1.74
  -8   0  -9    2.04    1.89
  -9   0  -9    2.01    1.70
  -9   0  -9    1.05    1.71
 -10   0  -9    0.38    1.25
 -11   0  -9    0.70    1.39
 -12   0  -9    1.25    1.32
 -13   0  -9   -0.26    1.29
 -14   0  -9    1.47    0.92
 -14   0  -9   -0.57    1.21
  14   0   9    1.05    1.07
 -15   0  -9    0.46    0.75
 -15   0  -9   -0.63    0.94
 -16   0  -9   -0.49    0.51
  21   1  -9   10.28    1.55
  20  -1  -9    7.70    1.68
  19  -1  -9   -0.73    1.37
  19  -1  -9    1.33    1.16
  19   1  -9    0.33    0.94
  19  -1  -9    0.33    1.09
  18  -1  -9   72.00    6.18
  18   1  -9   68.23    7.13
  18  -1  -9   57.60    6.76
  17   1  -9   20.21    3.49
  17  -1  -9   22.32    3.50
  17  -1  -9   17.67    3.37
  17   1  -9   23.75    4.21
  17  -1  -9   18.13    3.85
  16   1  -9    2.92    1.73
  16   1  -9    1.04    1.39
  16  -1  -9    1.05    1.53
  16   1  -9   -0.54    1.38
  16  -1  -9   -0.39    1.29
  16  -1  -9   -0.53    1.54
  15   1  -9   -0.76    1.61
  15  -1  -9    1.90    1.66
  15   1  -9    1.55    1.36
  15  -1  -9    2.48    1.63
  15   1  -9   -0.56    2.03
  15  -1  -9    2.87    2.43
  14   1  -9   14.68    3.11
  14  -1  -9   13.96    3.20
  14   1  -9   17.04    3.16
  14   1  -9   19.41    4.33
  14  -1  -9   16.82    4.01
  13   1  -9    9.95    2.58
  13   1  -9   10.68    5.84
  13  -1  -9    9.13    4.48
  13  -1  -9    8.97    2.71
  13   1  -9    9.40    2.44
  13   1  -9    7.73    3.21
  13  -1  -9   13.98    3.78
  13  -1  -9    8.20    2.63
  12   1  -9   26.61    4.11
  12   1  -9   31.66    9.13
  12  -1  -9   18.05    7.27
  12  -1  -9   33.82    4.71
  12   1  -9   34.84    4.51
  12   1  -9   34.23    5.68
  12  -1  -9   32.60    5.83
  12  -1  -9   34.46    4.47
  11  -1  -9  110.94   16.61
  11   1  -9   84.03   14.62
  11   1  -9   96.10    8.89
  11  -1  -9   96.14    8.54
  11   1  -9   89.09    9.60
  11  -1  -9   88.12    9.57
  11  -1  -9   92.37    8.05
  11   1  -9  100.04    8.24
  10   1  -9  140.93   18.33
  10  -1  -9  124.28   17.33
  10   1  -9  114.13   10.07
  10  -1  -9  124.74    9.98
  10   1  -9  114.55   10.99
  10  -1  -9  126.28   11.37
  10  -1  -9  115.87    9.25
  10   1  -9  122.88    9.51
   9  -1  -9   41.46    5.74
   9   1  -9   43.11    6.21
   9   1  -9   63.89   11.53
   9  -1  -9   68.84   12.22
   9   1  -9   50.18    5.88
   9  -1  -9   58.92    6.95
   9  -1  -9   50.53    5.13
   9   1  -9   41.82    4.95
   9   1  -9   41.98    5.65
   8   1  -9  215.57   14.78
   8   1  -9  216.12   22.64
   8  -1  -9  219.69   14.91
   8  -1  -9  194.68   21.98
   8   1  -9  180.89   13.89
   8  -1  -9  191.32   13.86
   8   1  -9  203.43   15.31
   8  -1  -9  207.66   15.43
   8   1  -9  207.94   13.54
   7   1  -9   38.69    9.32
   7  -1  -9   38.09    9.09
   7   1  -9   30.40    4.51
   7  -1  -9   34.24    4.78
   7  -1  -9   28.09    3.85
   7   1  -9   35.76    4.48
   7  -1  -9   38.11    4.61
   7  -1  -9   29.64    3.92
   7   1  -9   33.27    5.04
   7  -1  -9   32.41    5.04
   6   1  -9   41.13    5.18
   6  -1  -9   39.25    5.13
   6   1  -9   46.79    5.87
   6  -1  -9   44.27    5.05
   6   1  -9   37.38    4.72
   6  -1  -9   37.86    4.48
   6  -1  -9   47.16    5.80
   5   1  -9  155.44   11.63
   5  -1  -9  163.70   11.95
   5  -1  -9  148.57   10.97
   5   1  -9  151.98   11.23
   5  -1  -9  148.99   10.71
   5   1  -9  155.56   12.21
   5  -1  -9  151.80   12.09
   4  -1  -9   89.65    7.45
   4   1  -9   71.38    7.03
   4   1  -9   91.36    7.99
   4  -1  -9   88.26    8.06
   4  -1  -9   78.79    6.98
   4   1  -9   87.44    8.31
   4  -1  -9   94.20    8.46
   3   1  -9  159.40   11.48
   3  -1  -9  161.33   11.22
   3   1  -9  164.93   11.99
   3   1  -9  164.45   12.38
   3  -1  -9  153.82   12.22
  -3  -1   9  142.66   17.03
  -3   1   9  162.71   18.02
   2   1  -9  395.80   24.27
   2  -1  -9  405.80   24.44
   2   1  -9  390.72   23.74
  -2   1   9  461.50   33.51
  -2  -1   9  410.48   31.79
   1   1  -9   -0.72    1.63
   1   1  -9    1.22    1.34
   1  -1  -9   -0.83    1.70
  -1   1   9   -1.26    2.39
  -1  -1   9    1.24    2.70
   0   1  -9  224.80   15.17
   0  -1  -9  221.20   15.18
   0   1  -9  234.81   14.86
   0   1   9  227.70   21.99
   0  -1   9  192.91   20.35
   0  -1  -9  200.52   14.07
  -1   1  -9  449.19   25.59
  -1  -1  -9  432.61   25.53
  -1   1  -9  408.57   24.62
   1   1   9  418.14   33.07
   1  -1   9  372.95   31.95
  -1  -1  -9  399.27   24.18
  -2   1  -9   79.56    7.99
  -2  -1  -9   99.64    8.69
  -2   1  -9   81.74    7.59
   2   1   9   80.53   12.49
   2  -1   9   76.48   12.21
  -2  -1  -9   79.24    7.24
  -3   1  -9  445.10   25.65
  -3  -1  -9  408.53   25.30
  -3   1  -9  391.75   24.23
   3   1   9  424.18   33.88
   3  -1   9  357.00   31.81
  -3  -1  -9  397.23   24.02
  -4   1  -9  294.82   19.10
  -4  -1  -9  284.69   19.02
  -4   1  -9  303.90   26.90
  -4  -1  -9  281.91   26.36
  -4   1  -9  270.49   17.67
   4   1   9  341.54   28.18
   4  -1   9  214.81   23.84
  -4  -1  -9  263.93   17.36
  -4   1  -9  246.23   16.33
   5   1   9   26.73    7.48
   5  -1   9   19.05    6.65
  -5  -1  -9   23.72    3.78
  -5   1  -9   14.75    2.84
  -5   1  -9   11.86    5.44
  -5  -1  -9   16.88    6.10
  -5   1  -9   17.27    3.30
  -5  -1  -9   25.00    4.15
   6  -1   9   78.29   13.59
  -6   1  -9   97.37   14.40
  -6  -1  -9   80.28   13.39
  -6   1  -9   91.97    8.38
   6   1   9  103.77   15.01
  -6  -1  -9   91.91    8.36
  -6   1  -9   93.91    8.04
   7   1   9   17.07    6.39
   7  -1   9   15.32    6.31
  -7  -1  -9   21.27    3.75
  -7   1  -9   19.08    3.51
  -7   1  -9   13.93    5.41
  -7  -1  -9   19.21    6.59
  -7   1  -9   15.23    3.35
  -8   1  -9  101.19   15.04
  -8  -1  -9  139.94   17.62
  -8   1  -9  104.60    9.21
   8   1   9  127.85   16.35
   8  -1   9  112.44   15.73
  -8  -1  -9  116.05    9.67
  -8   1  -9  109.69    9.17
  -9   1  -9   55.03    5.98
  -9  -1  -9   64.89    6.60
  -9   1  -9   54.23    5.84
 -10  -1  -9    9.78    2.62
 -10   1  -9    8.41    2.37
 -10   1  -9    4.79    1.74
 -11  -1  -9  242.44   15.50
 -11   1  -9  225.24   14.86
 -12  -1  -9  164.37   11.01
 -12   1  -9  142.97   10.26
 -13  -1  -9    2.61    1.52
 -13   1  -9    4.90    1.61
 -13   1  -9    4.15    1.72
 -13  -1  -9    4.26    1.80
 -14  -1  -9   82.07    6.60
 -14   1  -9   73.42    6.32
  14   1   9   68.95    6.28
 -14  -1  -9   90.45    6.22
 -14   1  -9   76.70    5.68
 -15   1  -9   12.82    1.71
 -15  -1  -9   15.46    2.14
 -15   1  -9   15.64    2.20
 -15  -1  -9   20.88    2.23
  20  -2  -9   22.76    2.69
  19   2  -9    9.12    1.80
  19  -2  -9    7.09    3.38
  18  -2  -9   60.12    5.60
  18  -2  -9   62.49    5.46
  18   2  -9   40.20    4.76
  18  -2  -9   40.45    4.94
  18   2  -9   58.02    5.26
  17  -2  -9   72.62    6.31
  17  -2  -9   64.04    6.11
  17   2  -9   53.54    5.99
  17  -2  -9   54.28    6.20
  16  -2  -9    2.44    1.78
  16  -2  -9    2.17    1.59
  16   2  -9    1.65    1.57
  16  -2  -9    4.28    2.09
  15  -2  -9   21.11    3.76
  15   2  -9   18.09    2.69
  15  -2  -9   18.73    3.96
  15  -2  -9   20.02    3.55
  15   2  -9   16.77    3.57
  14  -2  -9   90.03    8.14
  14   2  -9   82.77    6.83
  14  -2  -9   74.98    7.52
  14   2  -9   68.38    7.92
  14  -2  -9   76.51    8.19
  14   2  -9   82.71    7.47
  13   2  -9    0.38    1.42
  13  -2  -9    1.28    1.62
  13   2  -9    2.87    1.59
  13  -2  -9    0.84    1.46
  13   2  -9    3.14    1.98
  13  -2  -9    3.23    2.20
  12   2  -9   61.84    7.32
  12   2  -9   74.51   12.23
  12  -2  -9   56.13   10.92
  12   2  -9   52.43    6.55
  12  -2  -9   71.29    7.21
  12  -2  -9   59.49    6.53
  12  -2  -9   58.82    7.16
  12   2  -9   63.10    6.46
  11   2  -9    1.96    1.72
  11   2  -9    4.73    2.98
  11  -2  -9    9.86    4.39
  11   2  -9    3.68    1.90
  11  -2  -9    1.23    1.42
  11  -2  -9    3.25    2.21
  11   2  -9    0.43    1.56
  10   2  -9  146.37   12.48
  10   2  -9  166.66   19.72
  10  -2  -9  143.43   18.74
  10   2  -9  145.37   11.89
  10  -2  -9  162.87   11.69
  10  -2  -9  149.86   12.70
  10   2  -9  166.32   11.76
   9   2  -9  331.65   30.55
   9  -2  -9  341.52   31.39
   9   2  -9  379.66   22.26
   9  -2  -9  363.25   21.98
   9  -2  -9  314.04   20.76
   9   2  -9  354.12   22.63
   9  -2  -9  353.88   22.78
   8  -2  -9   10.62    2.81
   8   2  -9    5.77    2.55
   8  -2  -9    8.95    2.74
   7   2  -9  661.51   38.55
   7  -2  -9  677.60   38.74
   7  -2  -9  714.99   38.70
   7  -2  -9  673.71   38.35
   7   2  -9  722.16   39.48
   7  -2  -9  705.14   39.52
   6   2  -9  771.91   40.95
   6  -2  -9  731.17   40.78
   6   2  -9  643.66   39.39
   6   2  -9  770.00   41.57
   6  -2  -9  724.91   40.49
   6  -2  -9  758.69   40.77
   6  -2  -9  807.72   41.99
   5   2  -9    9.81    2.44
   5  -2  -9   11.33    2.70
   5  -2  -9   13.35    2.90
   5   2  -9    9.00    2.33
   5  -2  -9   12.24    2.85
   5   2  -9    8.86    2.83
   5  -2  -9   13.14    3.05
   4   2  -9 1058.48   56.05
   4   2  -9 1092.30   57.47
   4  -2  -9 1124.20   57.70
   4  -2  -9 1011.82   56.72
   4   2  -9 1080.92   57.56
   4  -2  -9 1057.32   57.13
  -4  -2   9 1144.98   67.32
  -4   2   9 1163.79   67.82
   3   2  -9  709.36   40.00
   3  -2  -9  754.23   40.82
   3   2  -9  732.12   41.34
   3  -2  -9  802.82   41.95
   3   2  -9  762.63   41.78
   3  -2  -9  771.51   41.58
  -3   2   9  780.26   50.51
  -3  -2   9  761.56   49.59
   2   2  -9  112.27   12.50
   2   2  -9   99.63    7.84
   2  -2  -9  102.16    8.24
   2   2  -9  106.86    9.18
   2   2  -9  103.56    8.89
   2  -2  -9  118.15    9.40
   2  -2  -9  104.62    8.94
  -2   2   9  113.77   14.40
  -2  -2   9  133.72   15.02
   1   2  -9 1078.29   57.42
   1  -2  -9 1082.29   57.55
   1   2  -9 1072.10   62.79
   1   2  -9 1025.65   55.76
   1   2  -9 1118.65   57.96
   1  -2  -9 1095.54   57.55
  -1   2   9 1185.94   67.95
  -1  -2   9 1047.33   65.63
   0   2  -9  358.43   26.36
   0   2  -9  383.49   22.49
   0  -2  -9  371.98   22.53
   0   2  -9  362.75   22.64
   0  -2   9  329.88   28.61
   0   2   9  336.46   29.20
  -1   2  -9  100.29   11.22
  -1   2  -9  105.86    9.03
  -1  -2  -9  104.16    9.09
  -1  -2  -9  114.70    9.58
  -1   2  -9   97.17    9.04
  -1  -2  -9   98.92    8.77
   1   2   9  104.71   13.96
   1  -2   9  118.12   14.36
  -2   2  -9  473.37   27.19
  -2  -2  -9  475.80   27.36
  -2   2  -9  451.06   27.34
  -2  -2  -9  432.08   26.69
   2   2   9  464.39   35.35
   2  -2   9  399.05   33.84
   3   2   9    4.04    2.94
   3  -2   9   -1.31    2.85
  -3  -2  -9    1.23    1.48
  -3   2  -9    0.92    1.58
  -3   2  -9    1.71    1.68
  -3  -2  -9    1.34    1.47
  -3  -2  -9    2.36    2.19
  -4   2  -9  258.78   17.85
  -4  -2  -9  263.26   18.07
   4  -2   9  267.30   24.96
  -4  -2  -9  285.58   18.53
  -4   2  -9  266.26   18.22
  -4  -2  -9  268.41   17.76
   4   2   9  271.25   25.37
  -5   2  -9  191.00   13.99
  -5  -2  -9  187.55   14.08
  -5  -2  -9  192.75   14.30
  -5   2  -9  191.99   14.15
  -5  -2  -9  178.54   13.45
   5   2   9  184.23   20.15
   5  -2   9  173.53   19.12
   6   2   9    1.42    1.55
   6  -2   9    4.15    2.61
  -6  -2  -9    2.58    1.76
  -6   2  -9    0.47    1.79
  -6   2  -9    1.84    1.74
  -6  -2  -9    0.48    1.39
  -6  -2  -9   -0.48    1.75
  -7   2  -9  478.75   28.85
  -7  -2  -9  433.08   28.61
  -7  -2  -9  472.95   28.91
  -7   2  -9  494.29   29.09
  -7  -2  -9  529.50   28.92
  -8   2  -9  401.51   25.20
  -8   2  -9  383.08   24.96
  -8  -2  -9  399.92   25.39
  -8  -2  -9  429.13   25.54
  -8  -2  -9  445.18   25.30
  -9   2  -9   95.07    8.99
  -9  -2  -9  100.41    9.19
  -9  -2  -9  101.94    8.96
  -9   2  -9   95.16    8.90
  -9  -2  -9  121.87    9.40
 -10   2  -9  374.24   21.72
 -10  -2  -9  358.53   21.67
 -10   2  -9  340.05   21.05
 -10   2  -9  322.77   19.63
 -11   2  -9    9.98    2.00
 -11   2  -9   11.19    2.42
 -11   2  -9   13.04    2.81
 -11  -2  -9   10.80    2.69
 -12  -2  -9  136.55    9.12
 -12   2  -9  118.69    8.70
 -12   2  -9  106.33    8.12
  12   2   9  117.98    8.68
  12  -2   9  108.83    8.43
 -12   2  -9  114.29    7.67
 -13  -2  -9  138.09    8.63
 -13   2  -9  125.78    8.40
 -13   2  -9  110.37    7.41
 -14  -2  -9   -0.16    0.72
 -14   2  -9    1.26    0.66
  19   3  -9   81.15    5.50
  18  -3  -9   58.31    5.27
  18   3  -9   80.96    5.58
  17   3  -9    4.47    1.50
  17  -3  -9    6.39    4.55
  17  -3  -9    4.34    1.59
  16  -3  -9  144.09   10.48
  16  -3  -9  119.41    9.73
  16   3  -9  146.12    9.69
  15  -3  -9   49.64    5.62
  15  -3  -9   45.28    5.13
  15   3  -9   38.59    4.52
  14  -3  -9  110.07    9.46
  13   3  -9  424.26   23.90
  12   3  -9    4.71    2.11
  11   3  -9  301.19   18.75
  11  -3  -9  318.77   19.22
  11   3  -9  296.63   18.09
  10   3  -9  201.90   13.66
  10  -3  -9  213.23   14.25
  10  -3  -9  151.64   12.39
  10  -3  -9  170.22   12.85
  -9  -3   9   50.25    4.88
   9  -3  -9   49.50    6.08
   9   3  -9   44.15    5.53
   9  -3  -9   39.44    5.28
  -8  -3   9  811.88   42.85
   8  -3  -9  809.25   44.55
   8   3  -9  776.11   44.16
   7   3  -9   73.12    6.66
  -7  -3   9   64.16    6.20
   7  -3  -9   66.70    7.17
   7   3  -9   62.04    6.85
   6   3  -9  668.03   36.08
  -6  -3   9  613.31   35.70
   6  -3  -9  640.44   36.81
   6   3  -9  696.92   37.29
   6  -3  -9  645.60   36.97
   5  -3  -9 1127.34   61.70
   5   3  -9 1175.36   61.81
  -5  -3   9 1227.66   62.11
   5  -3  -9 1144.66   62.32
   5   3  -9 1223.23   63.11
   5  -3  -9 1185.20   63.02
   4   3  -9  187.97   19.27
   4  -3  -9  206.38   13.74
   4   3  -9  199.06   13.57
   4  -3  -9  189.87   13.83
   4   3  -9  225.21   15.01
   4  -3  -9  214.09   14.80
   3   3  -9  372.02   29.12
   3  -3  -9  361.79   21.88
   3   3  -9  354.46   21.69
   3  -3  -9  350.82   21.64
   3   3  -9  384.94   23.23
   3  -3  -9  402.91   23.29
   2   3  -9  945.80   56.56
   2   3  -9  866.98   47.50
   2  -3  -9  846.01   47.71
   2   3  -9  921.75   49.24
   2  -3  -9  946.37   49.23
   1   3  -9   43.86    7.81
   1   3  -9   40.18    4.74
   1  -3  -9   50.36    5.35
   1   3  -9   49.80    5.99
   1  -3  -9   47.89    5.75
   0   3  -9  516.14   35.12
   0   3  -9  472.20   27.39
   0  -3  -9  496.90   28.95
   0  -3  -9  459.72   27.75
   0  -3  -9  516.96   29.20
  -1   3  -9  429.96   31.16
  -1   3  -9  396.49   23.90
  -1  -3  -9  449.13   26.10
  -1  -3  -9  402.56   24.60
  -1  -3  -9  445.61   25.97
  -2   3  -9   80.31   10.55
  -2   3  -9   77.58    6.63
  -2  -3  -9   73.55    7.82
  -3  -3  -9  891.61   48.58
  -3   3  -9  859.73   47.67
  -4  -3  -9  170.04   11.69
  -4   3  -9  197.51   13.56
  -5  -3  -9  201.34   14.16
  -5   3  -9  236.34   16.00
  -6  -3  -9  376.63   24.05
   6  -3   9  418.68   23.88
  -6  -3  -9  443.82   26.06
  -6   3  -9  455.42   26.36
  -7  -3  -9   11.18    3.04
  -7   3  -9   10.40    2.93
   7  -3   9   10.52    2.15
  -7  -3  -9   14.61    3.36
  -8  -3  -9  301.36   19.40
  -8   3  -9  268.21   19.06
  -8  -3  -9  331.44   19.30
  -9  -3  -9  177.20   13.46
  -9   3  -9  192.93   13.64
  -9  -3  -9  211.79   13.42
 -10   3  -9   16.45    3.21
 -10  -3  -9   22.90    3.51
 -11   3  -9  156.64   10.72
 -12   3  -9  108.56    7.58
 -13   3  -9    9.74    1.51
 -13  -3  -9    9.46    1.57
  17   4  -9  149.30    8.78
  16   4  -9   11.28    1.76
  15   4  -9  167.28   10.48
  14   4  -9  222.26   13.60
  13  -4  -9   30.62    6.48
  13   4  -9   29.42    3.61
  12  -4  -9  395.01   24.74
  12   4  -9  424.17   23.80
  11   4  -9   59.36    5.74
  11  -4  -9   43.15    6.09
  10   4  -9  213.06   14.06
  10  -4  -9  202.00   14.76
  -9  -4   9  575.89   33.06
   9  -4  -9  623.95   35.25
   9   4  -9  665.90   34.64
  -8  -4   9  137.33   10.00
   8  -4  -9  132.17   11.16
   8   4  -9  160.08   11.11
   7   4  -9  295.03   17.46
  -7  -4   9  271.88   16.85
   7  -4  -9  244.27   17.62
   7   4  -9  270.33   17.46
   6   4  -9  381.05   22.83
  -6  -4   9  384.76   22.81
   6  -4  -9  360.08   23.17
   6   4  -9  426.49   23.83
   5   4  -9    3.66    1.94
   5   4  -9    2.37    1.85
  -5  -4   9    0.70    1.62
   5  -4  -9    1.74    2.29
   4   4  -9  461.42   26.56
  -4  -4   9  429.92   26.60
   4   4  -9  499.49   27.75
   3   4  -9  138.61   10.69
  -3  -4   9  152.45   11.37
   3   4  -9  161.86   11.84
   2   4  -9  341.80   20.72
  -2  -4   9  346.82   21.39
   2   4  -9  345.44   21.74
   1   4  -9  828.03   45.38
   1   4  -9  873.10   46.78
   0   4  -9   65.15    6.26
   0   4  -9   74.18    7.35
   0  -4  -9   69.17    7.21
  -1   4  -9  220.87   14.29
   1  -4   9  218.18   14.99
  -1   4  -9  218.55   15.42
  -1  -4  -9  225.08   15.46
  -2   4  -9  392.23   24.32
  -2  -4  -9  433.12   25.96
   2  -4   9  444.91   25.34
  -2   4  -9  451.66   26.30
  -2  -4  -9  451.10   26.13
  -3   4  -9   21.96    3.87
  -3   4  -9   17.18    2.86
   3  -4   9   20.71    3.28
  -3  -4  -9   17.98    3.62
  -3  -4  -9   16.73    3.54
  -4   4  -9  259.65   16.43
   4  -4   9  306.01   17.30
  -4  -4  -9  254.49   18.00
  -4  -4  -9  285.50   18.12
  -4   4  -9  293.85   18.59
   5  -4   9  216.13   13.83
  -5  -4  -9  224.89   15.50
  -5  -4  -9  221.59   15.11
  -5   4  -9  240.68   15.80
  -6   4  -9   25.29    3.97
   6  -4   9   26.21    3.05
  -6  -4  -9   30.60    4.05
  -6  -4  -9   20.02    3.68
  -7  -4  -9  378.54   21.49
  -7   4  -9  339.96   21.75
  -8  -4  -9  108.75    8.15
  -9  -4  -9   82.06    7.27
  -9  -4  -9  103.18    7.07
 -10  -4  -9  116.83    7.54
 -11   4  -9    0.79    0.73
  14   5  -9   60.14    4.17
  13   5  -9  190.14   11.03
  12   5  -9   45.54    3.93
  11   5  -9   59.55    5.00
 -10  -5   9  211.56   13.29
  10   5  -9  295.32   14.87
  -9  -5   9   17.13    2.52
   9   5  -9   23.03    2.85
   8   5  -9  168.81   10.89
   7   5  -9  110.92    8.05
  -6  -5   9   53.69    5.06
   6   5  -9   50.99    4.94
   5   5  -9  231.31   14.30
  -5  -5   9  230.29   14.35
   5   5  -9  221.90   14.24
   4   5  -9   51.23    5.00
  -4  -5   9   52.81    5.24
   4   5  -9   50.96    5.10
   3   5  -9   61.20    5.79
  -3  -5   9   69.78    6.31
   3   5  -9   78.12    6.55
   2   5  -9  127.31    9.18
  -2  -5   9  133.69    9.72
   2   5  -9  124.34    9.49
   1   5  -9    2.21    1.39
   1   5  -9    5.34    1.71
   0   5  -9  165.33   10.88
   0  -5   9  161.21   11.30
   0   5  -9  153.23   11.24
   0  -5  -9  173.00   11.77
  -1   5  -9   74.53    6.46
   1  -5   9   86.29    7.07
  -1   5  -9   94.40    7.43
  -1  -5  -9   86.24    7.28
  -2   5  -9   55.37    5.04
   2  -5   9   58.20    5.30
  -2   5  -9   54.19    5.49
  -2  -5  -9   64.06    5.81
  -3   5  -9  340.21   20.18
   3  -5   9  379.82   20.56
  -3   5  -9  360.56   21.29
  -3  -5  -9  380.49   21.20
  -4   5  -9   35.11    3.57
   4  -5   9   37.50    3.65
  -4   5  -9   46.89    4.69
  -4  -5  -9   47.51    4.44
  -5  -5  -9   56.43    4.91
  -5   5  -9   58.39    5.38
  -6   5  -9   49.86    4.80
  -7   5  -9    6.40    1.59
  -8   5  -9   33.48    3.25
   8   6  -9   10.47    1.53
  -7  -6   9    2.40    0.91
  -6  -6   9    2.39    1.05
  -5  -6   9   22.01    2.70
  -4  -6   9    0.17    0.84
   3   6  -9   18.68    2.26
  -3  -6   9   18.30    2.55
   2   6  -9    6.24    1.36
   1   6  -9   52.32    4.06
   0   6  -9    8.36    1.38
   0  -6   9    6.20    1.46
  -1   6  -9    1.54    0.77
   1  -6   9    1.93    0.88
  20   0 -10    3.70    1.14
  19   0 -10  233.41   12.98
  19   0 -10  181.61   13.50
  18   0 -10  424.72   23.30
  18   0 -10  383.73   25.01
  17   0 -10  105.03    7.78
  17   0 -10  102.78    8.08
  17   0 -10   87.24    8.86
  16   0 -10  149.56   10.48
  16   0 -10  140.54   12.07
  16   0 -10  144.35   10.63
  15   0 -10  641.97   34.45
  15   0 -10  609.01   36.62
  15   0 -10  602.66   34.45
  14   0 -10  153.43   11.30
  14   0 -10  150.63   13.16
  14   0 -10  149.59   11.18
  13   0 -10  324.49   20.15
  13   0 -10  322.77   22.25
  13   0 -10  312.53   19.71
  12   0 -10  361.54   33.97
  12   0 -10  384.91   22.98
  12   0 -10  375.43   24.90
  12   0 -10  363.57   22.25
  11   0 -10    2.07    1.76
  11   0 -10    3.61    3.41
  11   0 -10   -0.41    1.78
  11   0 -10    2.41    2.46
  10   0 -10  869.11   60.64
  10   0 -10  801.58   46.40
  10   0 -10  884.86   46.70
  10   0 -10  921.22   49.27
  10   0 -10  825.08   45.48
   9   0 -10  467.88   28.83
   9   0 -10  431.49   38.61
   9   0 -10  452.58   27.64
   9   0 -10  498.95   28.11
   9   0 -10  484.88   29.90
   9   0 -10  476.70   26.85
   8   0 -10   91.02    8.72
   8   0 -10   76.39    7.46
   8   0 -10   99.04    9.43
   7   0 -10  749.12   42.44
   7   0 -10  727.68   41.09
   7   0 -10  801.25   43.62
   6   0 -10  223.85   15.73
   6   0 -10  223.07   14.62
   6   0 -10  212.98   16.11
   5   0 -10  671.04   38.82
   5   0 -10  645.64   37.24
   5   0 -10  766.21   40.04
   4   0 -10  520.69   29.83
   4   0 -10  541.83   31.54
   4   0 -10  526.09   31.80
  -4   0  10  593.67   41.90
   3   0 -10   16.71    2.86
   3   0 -10   15.44    3.49
   2   0 -10  116.86    9.85
   2   0 -10  102.18    8.29
  -2   0  10  122.64   15.91
   1   0 -10  716.14   40.53
   1   0 -10  706.40   38.64
  -1   0  10  763.01   50.81
   0   0 -10  130.76   10.66
   0   0 -10  110.73    8.69
   0   0  10  142.74   17.15
  -1   0 -10  997.61   53.13
   1   0  10  861.05   61.38
  -1   0 -10  963.69   50.82
  -2   0 -10  492.77   28.44
   2   0  10  451.38   36.37
  -2   0 -10  439.52   26.03
  -3   0 -10  326.24   21.28
   3   0  10  373.34   30.74
  -3   0 -10  304.53   19.26
  -4   0 -10 1064.02   54.30
   4   0  10  996.58   64.65
  -4   0 -10  913.75   51.53
  -5   0 -10  185.50   14.24
   5   0  10  157.44   19.90
  -5   0 -10  176.46   12.51
  -6   0 -10  368.82   24.41
   6   0  10  378.46   32.98
  -6   0 -10  381.06   22.72
  -7   0 -10  413.75   25.82
  -7   0 -10  391.17   23.71
  -8   0 -10   25.09    4.71
  -8   0 -10   30.06    4.08
  -9   0 -10  100.56    9.55
  -9   0 -10  107.59    8.52
 -10   0 -10   22.49    3.30
 -10   0 -10   18.50    3.63
 -11   0 -10  107.04    9.09
 -11   0 -10  110.12    8.14
 -12   0 -10  107.85    9.02
 -12   0 -10  131.78    8.50
 -13   0 -10    5.29    1.33
 -13   0 -10    2.87    1.42
 -14   0 -10   65.22    5.09
 -14   0 -10   66.51    4.60
  20  -1 -10   71.73    5.10
  20   1 -10   72.48    5.16
  19  -1 -10  131.03    8.12
  19   1 -10  130.50    8.15
  18  -1 -10    2.78    1.32
  18  -1 -10   -0.25    0.93
  18   1 -10    0.65    1.27
  18  -1 -10    0.33    1.08
  18   1 -10    2.94    1.39
  17  -1 -10  207.48   12.80
  17   1 -10  195.65   11.77
  17  -1 -10  203.67   12.88
  17   1 -10  167.80   13.36
  17  -1 -10  176.57   13.55
  17   1 -10  200.60   12.84
  16  -1 -10  168.47   11.53
  16   1 -10  170.43   10.77
  16  -1 -10  163.40   11.43
  16   1 -10  137.40   12.12
  16  -1 -10  142.87   12.22
  16   1 -10  164.30   11.46
  15  -1 -10   95.59    7.99
  15   1 -10   92.27    7.31
  15  -1 -10   78.07    7.41
  15   1 -10   77.43    8.44
  15  -1 -10   75.49    8.58
  15   1 -10   87.76    7.59
  14  -1 -10  699.83   37.96
  14   1 -10  709.35   37.34
  14  -1 -10  667.13   37.57
  14   1 -10  648.93   39.44
  14  -1 -10  654.47   39.59
  14   1 -10  671.38   37.41
  13  -1 -10  226.03   15.20
  13   1 -10  216.55   14.59
  13  -1 -10  203.48   14.55
  13   1 -10  231.27   16.80
  13  -1 -10  211.97   16.47
  13   1 -10  223.69   14.73
  12   1 -10   48.63   10.36
  12  -1 -10   42.77    9.70
  12   1 -10   37.19    4.74
  12  -1 -10   32.95    4.93
  12  -1 -10   33.46    4.50
  12  -1 -10   41.67    6.07
  12   1 -10   32.73    5.51
  12   1 -10   41.77    4.97
  11   1 -10  471.75   40.19
  11  -1 -10  461.13   40.35
  11   1 -10  510.81   29.80
  11  -1 -10  528.75   29.59
  11   1 -10  544.58   29.30
  11  -1 -10  449.52   28.31
  11   1 -10  538.83   31.35
  11  -1 -10  518.16   31.35
  11  -1 -10  450.73   28.04
  11   1 -10  517.24   28.68
  10   1 -10  135.23   18.39
  10  -1 -10  114.24   17.30
  10   1 -10  131.43   10.47
  10  -1 -10  124.93    9.64
  10   1 -10  128.42   11.53
  10  -1 -10  127.31   11.64
  10   1 -10  122.71    9.60
   9   1 -10  275.78   17.77
   9   1 -10  286.48   19.22
   9  -1 -10  270.52   19.19
   9   1 -10  247.14   16.41
   9   1 -10  276.84   18.41
   9  -1 -10  243.83   17.86
   8   1 -10  284.96   18.84
   8  -1 -10  289.24   19.00
   8   1 -10  269.27   18.05
   8  -1 -10  275.72   18.10
   8   1 -10  280.79   19.47
   8  -1 -10  283.00   19.46
   8   1 -10  265.82   17.04
   7   1 -10   11.02    2.68
   7   1 -10    7.99    2.14
   7  -1 -10    5.20    2.19
   7  -1 -10    6.61    2.02
   7   1 -10   11.08    3.29
   7  -1 -10   11.29    3.35
   7   1 -10   16.47    3.56
   7  -1 -10   14.42    3.28
   6   1 -10  312.19   20.77
   6  -1 -10  313.58   20.97
   6  -1 -10  347.30   20.57
   6   1 -10  326.06   20.28
   6  -1 -10  307.82   19.55
   6   1 -10  351.59   21.92
   6  -1 -10  368.71   22.31
   6   1 -10  305.35   19.04
   5   1 -10  910.92   50.30
   5  -1 -10  910.64   50.33
   5  -1 -10  894.21   49.33
   5   1 -10  932.83   49.60
   5  -1 -10  877.34   48.80
   5   1 -10  923.57   50.97
   5  -1 -10  994.62   51.45
  -5  -1  10  950.67   60.97
  -5   1  10  924.11   60.96
   4   1 -10   24.30    4.04
   4  -1 -10   29.12    4.54
   4  -1 -10   33.73    4.43
   4   1 -10   27.99    4.42
   4  -1 -10   24.43    3.67
  -4  -1  10   33.49    8.02
  -4   1  10   21.51    6.95
   3  -1 -10  902.48   48.23
   3   1 -10  914.34   48.67
   3   1 -10  928.60   49.56
   3  -1 -10  878.16   49.51
   3  -1 -10  855.41   48.00
  -3   1  10  919.56   59.51
  -3  -1  10  966.43   59.74
   2  -1 -10  130.61    9.83
   2   1 -10  156.39   10.83
   2  -1 -10  133.28   10.10
  -2   1  10  103.07   15.07
  -2  -1  10  104.70   15.00
   1   1 -10  538.48   31.13
   1  -1 -10  551.90   31.40
   1  -1 -10  515.79   29.24
   1   1 -10  515.52   30.13
  -1   1  10  499.88   39.32
  -1  -1  10  517.78   39.55
   0   1 -10 1064.43   56.67
   0  -1 -10 1017.67   56.58
   0   1 -10 1066.49   55.81
   0   1  10 1000.87   66.33
   0  -1  10 1021.59   66.11
   1   1  10    5.80    4.19
   1  -1  10    9.93    4.39
  -1  -1 -10    8.73    2.34
  -1   1 -10    5.02    2.00
  -1   1 -10    5.62    2.42
  -1  -1 -10    6.73    2.69
  -2   1 -10  552.07   31.62
  -2  -1 -10  544.37   31.77
  -2   1 -10  520.42   30.45
  -2  -1 -10  520.57   30.34
   2   1  10  496.90   39.95
   2  -1  10  546.30   40.76
  -3   1 -10  309.51   20.32
  -3  -1 -10  322.32   20.68
  -3   1 -10  299.13   19.13
  -3  -1 -10  301.54   19.17
   3   1  10  320.00   28.85
   3  -1  10  247.61   26.02
   4   1  10   62.45   11.59
   4  -1  10   77.76   12.83
  -4   1 -10   82.53    8.14
  -4  -1 -10   69.13    7.81
  -4   1 -10   73.30    7.09
  -4  -1 -10   71.36    7.07
  -5   1 -10  174.54   13.49
  -5  -1 -10  185.11   13.97
  -5   1 -10  153.27   11.91
  -5  -1 -10  179.68   12.53
   5   1  10  169.88   19.96
   5  -1  10  168.63   19.62
  -5   1 -10  156.33   11.26
  -6   1 -10  161.97   12.75
  -6  -1 -10  146.39   12.42
  -6   1 -10  138.63   10.91
  -6  -1 -10  159.91   11.60
   6   1  10  136.08   17.74
   6  -1  10  130.75   16.94
  -6   1 -10  152.45   10.59
  -7   1 -10   59.62    6.89
  -7  -1 -10   60.18    6.89
  -7   1 -10   45.60    5.22
  -7  -1 -10   55.87    6.03
  -7   1 -10   50.81    5.21
  -8   1 -10  197.36   14.52
  -8  -1 -10  207.12   14.87
  -8  -1 -10  186.19   13.36
  -8   1 -10  183.37   12.51
  -9   1 -10   24.12    4.20
  -9  -1 -10   27.42    4.40
  -9  -1 -10   29.60    4.02
  -9   1 -10   28.03    3.57
 -10   1 -10  112.43    9.73
 -10  -1 -10  124.87   10.18
 -10  -1 -10  130.26    9.35
 -10   1 -10  116.34    8.51
 -11   1 -10  208.97   13.81
 -11  -1 -10  205.89   13.83
 -11  -1 -10  210.18   13.19
 -11   1 -10  196.24   12.37
 -12  -1 -10    7.24    1.67
 -12   1 -10    7.09    1.55
 -12  -1 -10    5.80    1.79
 -12   1 -10    5.65    1.79
 -13  -1 -10  106.36    7.28
 -13   1 -10  104.64    7.18
 -13  -1 -10  128.08    7.27
 -14  -1 -10    7.37    1.27
 -14  -1 -10    3.61    1.09
 -14   1 -10    4.81    1.17
  19  -2 -10    0.83    0.67
  18  -2 -10   66.21    5.77
  17  -2 -10   72.32    6.22
  17  -2 -10   62.93    5.64
  17   2 -10   71.98    6.00
  16   2 -10   14.99    2.68
  16  -2 -10   10.39    2.53
  16  -2 -10   12.41    2.46
  16   2 -10    7.69    2.28
  16  -2 -10   10.70    2.56
  15  -2 -10  143.37   10.49
  15   2 -10  137.32    9.10
  15  -2 -10  131.37    9.85
  15   2 -10  116.84   10.20
  15  -2 -10  118.00   10.35
  15   2 -10  150.84   10.17
  14   2 -10   -0.32    1.42
  14  -2 -10    0.38    1.65
  14   2 -10    1.09    1.19
  14  -2 -10   -0.34    1.16
  14   2 -10    3.98    1.99
  14  -2 -10   -1.36    1.64
  13  -2 -10  130.39   10.13
  13   2 -10  126.47    9.08
  13  -2 -10  101.10    8.83
  13   2 -10  102.13    9.69
  13  -2 -10  106.05    9.94
  13   2 -10  123.79    9.25
  12   2 -10  172.36   12.61
  12  -2 -10  140.02   11.09
  12   2 -10  149.16   12.50
  12  -2 -10  162.89   12.79
  12   2 -10  164.40   11.56
  11   2 -10    2.87    1.62
  11  -2 -10    1.36    1.44
  11   2 -10    1.49    1.80
  11  -2 -10    3.59    2.02
  10  -2 -10  560.06   31.68
  10   2 -10  549.20   32.36
  10  -2 -10  526.29   32.31
  10   2 -10  531.10   30.71
  -9  -2  10  341.57   19.85
   9  -2 -10  366.65   21.89
   9   2 -10  375.97   22.72
   9  -2 -10  322.84   22.17
   9   2 -10  320.55   20.62
  -8  -2  10   44.95    4.78
   8  -2 -10   46.62    5.70
   8   2 -10   53.82    6.26
   8  -2 -10   45.50    5.93
   7   2 -10  174.19   13.15
   7  -2 -10  176.35   13.25
   7  -2 -10  184.23   13.15
   7   2 -10  181.61   13.18
   7  -2 -10  173.68   12.87
   7   2 -10  185.42   13.78
   7  -2 -10  181.06   13.86
   6   2 -10   10.20    2.77
   6  -2 -10    5.94    2.07
   6  -2 -10    6.74    2.40
   6   2 -10   11.73    2.85
   6  -2 -10   10.82    2.78
  -6  -2  10    6.64    3.85
  -6   2  10    8.41    4.86
   5   2 -10  201.79   14.20
   5  -2 -10  195.95   14.23
   5  -2 -10  198.09   13.89
   5   2 -10  206.16   14.41
   5  -2 -10  184.02   13.75
  -5   2  10  205.57   21.18
  -5  -2  10  240.65   22.09
   4   2 -10  298.26   18.37
   4  -2 -10  264.45   18.01
   4  -2 -10  261.48   17.34
   4   2 -10  285.86   18.18
   4  -2 -10  266.51   17.76
  -4   2  10  266.64   25.34
  -4  -2  10  276.52   25.00
   3   2 -10   44.60    4.45
   3   2 -10   34.77    4.86
   3  -2 -10   43.18    4.87
   3  -2 -10   42.95    5.48
   3   2 -10   35.63    4.94
   3  -2 -10   45.24    5.35
  -3   2  10   35.23    8.60
  -3  -2  10   41.26    8.67
   2   2 -10  430.17   25.42
   2  -2 -10  420.67   25.58
   2   2 -10  435.04   25.52
   2  -2 -10  400.75   25.03
  -2   2  10  454.01   34.48
  -2  -2  10  365.35   31.63
   1   2 -10  363.02   22.03
   1   2 -10  342.16   21.64
   1  -2 -10  346.43   21.94
   1  -2 -10  337.73   21.53
  -1   2  10  342.15   29.26
  -1  -2  10  332.22   28.65
   0   2  10    2.72    3.64
   0  -2  10    2.60    2.46
   0   2 -10    3.06    2.14
   0   2 -10    0.42    1.37
   0  -2 -10    1.74    1.50
   0  -2 -10    2.12    1.47
  -1   2 -10  244.66   16.89
  -1  -2 -10  255.13   17.27
  -1   2 -10  264.11   17.33
   1   2  10  262.77   24.54
   1  -2  10  258.36   23.87
   2   2  10   45.91    9.22
   2  -2  10   37.48    8.15
  -2   2 -10   51.45    5.98
  -2  -2 -10   63.35    6.68
  -2   2 -10   55.83    6.23
   3  -2  10   64.48   10.54
  -3   2 -10   56.66    6.35
  -3  -2 -10   56.23    6.41
  -3   2 -10   60.19    6.54
  -3  -2 -10   54.31    6.23
   3   2  10   68.48   11.15
  -4   2 -10  251.66   16.39
  -4  -2 -10  234.64   16.29
  -4   2 -10  234.45   16.11
  -4  -2 -10  233.63   15.95
   4   2  10  218.18   22.74
   4  -2  10  199.43   21.83
  -5  -2 -10    0.83    1.92
  -5   2 -10   -0.43    1.54
  -5   2 -10    0.43    1.62
  -5  -2 -10   -0.45    1.47
  -6   2 -10  456.97   27.10
  -6  -2 -10  464.75   27.35
  -6   2 -10  397.28   26.44
  -6  -2 -10  508.54   27.44
  -7   2 -10   55.53    6.06
  -7  -2 -10   59.43    6.38
  -7   2 -10   48.34    5.70
  -7  -2 -10   52.69    5.95
  -8   2 -10   33.48    4.62
  -8  -2 -10   43.25    5.12
  -8   2 -10   30.74    4.44
  -9  -2 -10   52.46    5.44
  -9   2 -10   48.55    5.22
  -9   2 -10   42.50    4.85
  -9  -2 -10   50.30    5.29
 -10  -2 -10    8.39    2.26
 -10  -2 -10    6.44    1.95
 -10   2 -10    6.76    1.88
 -11  -2 -10   43.01    4.28
 -11   2 -10   40.04    4.16
 -11  -2 -10   52.88    4.64
 -12   2 -10   39.13    3.63
  18   3 -10   12.15    1.69
  17  -3 -10    3.59    3.97
  16  -3 -10   14.34    3.57
  15  -3 -10    7.52    2.53
  14   3 -10   33.30    3.98
  13   3 -10   11.18    2.37
  13   3 -10   13.67    2.19
  12   3 -10    0.32    1.30
  12  -3 -10    2.71    1.94
  12   3 -10    3.24    1.93
  11   3 -10    0.68    1.39
  11  -3 -10    0.81    1.59
  11   3 -10    0.75    1.74
  10   3 -10   13.04    2.68
  10  -3 -10    9.91    2.73
  10   3 -10   12.37    2.83
  -9  -3  10   38.96    4.14
   9   3 -10   39.63    5.05
   9  -3 -10   41.30    5.39
   8   3 -10   19.46    3.57
  -8  -3  10   14.14    2.56
   7   3 -10   16.97    3.56
  -7  -3  10   21.65    3.22
   7  -3 -10   18.05    3.59
  -6  -3  10  190.30   13.02
   6  -3 -10  181.35   13.59
   6   3 -10  212.31   14.26
   6  -3 -10  193.64   14.08
   5   3 -10  131.83    9.50
  -5  -3  10  113.23    9.33
   5  -3 -10  119.59    9.76
   5   3 -10  138.52   10.57
   5  -3 -10  136.78   10.63
   5  -3 -10  109.76    9.28
   4   3 -10    8.71    2.53
   4   3 -10    6.19    1.96
  -4  -3  10    6.62    2.21
   4  -3 -10    7.56    2.14
   4  -3 -10    3.90    2.14
   4  -3 -10    4.12    1.66
   3  -3 -10   33.82    4.24
   3   3 -10   27.39    3.66
   3  -3 -10   36.17    4.91
   2   3 -10    4.37    1.60
   2  -3 -10    3.49    1.86
   2  -3 -10    4.53    1.71
   1  -3 -10   -0.35    1.01
   1   3 -10    0.28    0.97
   1  -3 -10    1.75    1.72
   0  -3 -10    6.67    1.91
   0   3 -10    6.93    1.68
   0  -3 -10    7.03    2.37
  -1   3 -10   17.90    3.56
  -1  -3 -10   27.64    4.24
  -1   3 -10   17.70    2.76
  -1  -3 -10   23.09    3.46
  -2  -3 -10   87.00    7.63
  -2   3 -10   87.36    8.27
  -2  -3 -10   87.78    8.18
  -3   3 -10    2.18    1.79
  -3  -3 -10    3.08    1.50
  -3  -3 -10    0.86    1.77
   4  -3  10   35.48    4.27
  -4   3 -10   31.50    4.62
  -4  -3 -10   35.58    4.89
  -5   3 -10   19.66    3.66
   5  -3  10   18.16    2.92
  -6   3 -10    3.10    1.80
   6  -3  10    2.21    1.29
  -7   3 -10   44.88    5.26
  -8   3 -10   49.97    5.35
  -9   3 -10    0.77    0.97
  -9  -3 -10    0.55    1.12
 -10   3 -10   65.69    5.57
 -10  -3 -10   85.27    6.17
 -11   3 -10   19.80    2.35
 -11  -3 -10   32.30    2.97
  16   4 -10   16.51    1.90
  15   4 -10  111.28    7.21
  14  -4 -10   11.65    5.33
  13  -4 -10   54.39    7.29
  12  -4 -10   89.23    8.59
  11   4 -10   12.28    2.33
  11  -4 -10    8.42    4.21
  11   4 -10   12.79    2.53
  10   4 -10    9.25    2.17
  10  -4 -10    3.75    3.28
  10   4 -10    8.04    2.16
  -9  -4  10    7.54    1.77
   9  -4 -10    6.65    3.21
   9   4 -10    5.65    1.94
  -8  -4  10   -0.24    1.19
   8  -4 -10    2.10    2.86
   8   4 -10    0.33    1.39
  -7  -4  10   14.45    2.62
   7  -4 -10   13.92    3.67
   7   4 -10   14.76    2.87
   6   4 -10   -0.71    1.40
  -6  -4  10   -0.30    1.30
   5   4 -10   31.68    3.94
  -5  -4  10   33.08    4.19
   5   4 -10   33.12    4.39
   4   4 -10   28.10    3.76
  -4  -4  10   34.75    4.27
   4   4 -10   37.73    4.70
   4  -4 -10   32.63    4.78
   3   4 -10   -0.38    1.33
   3   4 -10    0.57    1.16
  -3  -4  10    1.38    1.64
   3  -4 -10    0.40    1.71
   2   4 -10   34.41    4.04
  -2  -4  10   36.09    4.54
   2   4 -10   36.50    4.85
   1   4 -10   21.04    3.63
   1   4 -10   17.40    2.88
  -1  -4  10   19.01    3.45
   0   4 -10    0.39    1.75
   0   4 -10    0.25    1.08
  -1   4 -10   26.36    3.36
   1  -4  10   32.96    4.25
   2  -4  10   46.62    4.95
  -2   4 -10   50.79    5.52
  -2  -4 -10   42.45    5.18
  -3   4 -10    0.36    1.38
   3  -4  10    1.64    1.23
  -3  -4 -10    1.78    1.45
  -4   4 -10   22.22    3.63
   4  -4  10   27.87    3.34
  -4  -4 -10   30.92    4.01
   5  -4  10   23.89    2.87
  -5  -4 -10   29.92    3.83
  -6  -4 -10   -0.83    1.25
  -7  -4 -10   11.54    2.08
  -8   4 -10    4.65    1.49
  -8  -4 -10    7.51    1.59
  -9   4 -10    2.24    0.96
  -9  -4 -10    2.65    0.89
  12   5 -10    1.56    0.72
  -9  -5  10   61.90    5.02
   9   5 -10   97.36    5.87
  -8  -5  10  123.97    8.83
   8   5 -10  167.73    9.43
   7   5 -10    0.21    0.95
   6   5 -10  172.82   10.96
  -5  -5  10   58.66    5.58
   5   5 -10   86.53    6.18
   4   5 -10   32.20    3.46
  -4  -5  10   30.16    3.61
   4   5 -10   35.24    3.76
   3   5 -10  186.97   11.78
  -3  -5  10  181.64   12.11
   3   5 -10  212.79   12.47
   2   5 -10   40.74    3.90
  -2  -5  10   37.18    4.25
   2   5 -10   48.53    4.52
   1   5 -10   70.99    5.59
   1   5 -10   79.26    6.36
   0   5 -10  160.60   10.44
   0  -5  10  179.77   11.26
   0   5 -10  191.88   11.63
  -1   5 -10    5.43    1.61
  -1   5 -10    3.81    1.17
   1  -5  10    5.82    1.59
   2  -5  10  107.23    7.37
  -2   5 -10  113.24    7.97
   3  -5  10   59.73    4.71
  -3   5 -10   71.28    5.60
  -4   5 -10   11.44    2.06
  -5   5 -10   97.45    6.78
  -6   5 -10   10.23    1.67
  19   0 -11    0.60    0.57
  18   0 -11    0.14    0.67
  18   0 -11    0.69    0.68
  17   0 -11    0.21    0.98
  17   0 -11    0.22    0.89
  17   0 -11    1.36    1.29
  16   0 -11   -0.26    1.34
  16   0 -11   -0.25    1.10
  16   0 -11    1.21    1.53
  15   0 -11    1.78    1.45
  15   0 -11   -0.28    1.14
  15   0 -11    0.46    1.59
  14   0 -11    0.33    1.35
  14   0 -11   -0.51    1.66
  14   0 -11   -0.58    1.42
  13   0 -11   -0.30    1.09
  13   0 -11    1.08    1.62
  12   0 -11    0.30    0.93
  12   0 -11   -1.14    1.95
  12   0 -11   -2.22    2.19
  11   0 -11    1.19    1.02
  11   0 -11   -1.19    1.73
  11   0 -11    1.69    2.04
  10   0 -11   -0.29    1.36
  10   0 -11   -0.41    1.33
  10   0 -11    1.14    1.86
   9   0 -11    0.49    1.06
   9   0 -11    2.27    2.31
   9   0 -11   -0.38    1.36
   8   0 -11   -0.56    1.50
   8   0 -11    0.49    1.59
   8   0 -11    0.73    1.19
   7   0 -11   -0.56    1.92
   7   0 -11   -0.49    1.50
   7   0 -11    0.35    1.09
   6   0 -11    1.10    2.33
   6   0 -11    0.34    1.05
  -6   0  11    1.55    1.70
   6   0 -11    2.45    1.69
   5   0 -11    0.49    1.42
   5   0 -11    0.33    1.29
  -5   0  11    1.54    2.90
   4   0 -11    0.49    1.61
  -4   0  11   -1.52    3.31
   4   0 -11    0.63    1.09
   3   0 -11    0.92    1.06
   3   0 -11   -0.50    1.53
  -3   0  11    1.51    2.85
   2   0 -11    1.50    1.64
  -2   0  11   -1.52    3.31
   1   0 -11    0.48    1.59
  -1   0  11   -1.52    2.87
   0   0 -11    0.98    1.41
   0   0 -11   -0.62    1.17
   0   0  11   -1.52    2.87
   1   0  11    1.52    2.34
  -1   0 -11   -0.99    1.43
  -2   0 -11   -0.31    1.12
  -2   0 -11   -0.50    1.63
   3   0  11    1.53    3.35
  -3   0 -11   -0.32    1.04
  -3   0 -11   -1.00    1.89
  -4   0 -11   -1.28    1.63
  -4   0 -11    1.48    1.95
  -5   0 -11   -0.96    1.52
  -5   0 -11    0.49    1.76
  -6   0 -11   -0.62    1.23
  -6   0 -11   -0.47    1.45
  -7   0 -11    0.30    0.98
  -7   0 -11    0.89    1.46
  -8   0 -11   -0.28    1.00
  -8   0 -11    0.41    1.49
  -9   0 -11    0.25    0.89
  -9   0 -11    0.73    1.26
 -10   0 -11   -0.21    0.97
 -10   0 -11   -0.31    1.22
 -11   0 -11    0.17    0.75
 -11   0 -11    0.25    0.82
 -12   0 -11    0.12    0.49
 -12   0 -11   -0.93    0.91
  18  -1 -11    1.62    0.94
  18  -1 -11    0.15    0.60
  18   1 -11    0.65    0.73
  17  -1 -11   16.72    2.51
  17   1 -11   13.71    2.00
  17  -1 -11   16.82    2.29
  17   1 -11   13.45    2.61
  17  -1 -11   13.72    2.68
  17   1 -11   14.63    2.32
  16   1 -11    6.88    1.84
  16  -1 -11    5.93    1.99
  16   1 -11    6.77    1.75
  16  -1 -11    5.76    1.63
  16   1 -11    8.67    2.44
  16  -1 -11    1.84    1.78
  15  -1 -11   56.28    5.68
  15   1 -11   62.43    5.42
  15   1 -11   50.60    6.05
  15  -1 -11   51.55    6.16
  15   1 -11   49.89    5.15
  14   1 -11   21.69    3.28
  14  -1 -11   20.94    3.59
  14   1 -11   19.11    3.09
  14   1 -11   17.28    3.70
  14  -1 -11   20.96    3.91
  13   1 -11    2.75    1.70
  13  -1 -11    2.58    1.66
  13   1 -11    2.32    1.66
  13   1 -11    1.00    1.88
  13  -1 -11    0.51    1.75
  12  -1 -11   57.51    6.07
  12   1 -11   65.10    6.17
  12   1 -11   44.13    6.26
  12  -1 -11   47.74    6.45
  12   1 -11   51.05    5.33
  11   1 -11   51.95    5.98
  11   1 -11   58.82    6.03
  11   1 -11   59.60    7.09
  11  -1 -11   48.97    6.59
  11   1 -11   54.81    5.44
  10   1 -11    5.18    1.81
  10   1 -11    4.30    2.51
  10  -1 -11   10.45    3.08
  10   1 -11    6.43    2.08
   9   1 -11  133.26   10.92
   9  -1 -11  140.23   11.03
   9   1 -11  149.31   12.20
   9  -1 -11  152.66   12.46
   9   1 -11  133.26    9.82
   8   1 -11   14.57    2.54
   8  -1 -11   12.66    2.97
   8   1 -11   16.38    3.49
   8  -1 -11   18.59    3.81
   8   1 -11   11.82    3.33
   8  -1 -11   10.98    3.19
   8   1 -11   14.59    3.03
   7   1 -11   77.60    8.36
   7  -1 -11  104.92    9.37
   7   1 -11   93.92    8.32
   7  -1 -11  105.14    8.84
   7   1 -11  100.24    9.58
   7  -1 -11   99.05    9.60
  -7  -1  11   93.32   13.75
  -7   1  11   99.38   14.64
   6   1 -11   12.76    2.81
   6  -1 -11   16.27    3.25
   6  -1 -11   13.05    2.60
   6   1 -11   19.25    3.61
   6  -1 -11   11.04    3.03
  -6  -1  11    7.45    4.35
  -6   1  11   13.82    5.34
   5   1 -11   -0.38    1.26
   5   1 -11    0.94    1.46
   5  -1 -11    0.48    1.58
   5  -1 -11   -0.39    1.27
   5  -1 -11   -0.33    1.26
  -5   1  11   -1.52    2.87
  -5  -1  11    2.95    3.22
   4   1 -11    0.76    1.32
   4   1 -11   -0.47    1.36
   4  -1 -11    1.45    1.67
   4  -1 -11    0.75    1.47
   4  -1 -11    1.36    1.29
  -4   1  11    3.00    2.84
  -4  -1  11   -1.46    2.25
   3   1 -11   17.27    3.17
   3   1 -11   16.12    3.55
   3  -1 -11   16.07    3.36
   3  -1 -11   18.73    3.22
   3  -1 -11   14.28    2.79
  -3   1  11    7.50    4.39
  -3  -1  11   10.21    5.09
   2   1 -11    0.76    1.17
   2   1 -11    1.44    1.57
   2  -1 -11    0.49    1.62
   2  -1 -11    1.95    1.42
   2  -1 -11    1.78    1.29
  -2   1  11    3.01    3.67
   1  -1 -11   32.26    4.07
   1   1 -11   43.72    5.03
   1  -1 -11   36.12    4.57
   1   1 -11   42.93    5.54
   1  -1 -11   41.27    5.59
  -1   1  11   48.00    9.45
  -1  -1  11   42.40    8.94
   0   1  11   13.45    4.96
   0  -1  11   18.95    5.79
   0   1 -11   23.97    3.55
   0   1 -11   14.50    3.29
   0  -1 -11   12.49    3.20
   0  -1 -11   16.10    3.19
   1   1  11   23.98    6.63
   1  -1  11   19.04    5.86
  -1   1 -11   21.01    3.41
  -1   1 -11   24.99    4.22
  -1  -1 -11   21.32    4.13
   2   1  11    9.02    4.34
   2  -1  11    2.94    2.27
  -2   1 -11    3.18    1.64
  -2   1 -11    2.84    1.87
  -2  -1 -11    1.95    1.60
  -3  -1 -11    1.83    1.60
  -3   1 -11    1.70    1.39
  -3   1 -11    4.25    2.06
  -3  -1 -11    2.91    1.99
  -4  -1 -11   24.44    3.76
  -4   1 -11   23.45    3.56
  -4   1 -11   30.74    4.55
  -4  -1 -11   27.28    4.40
  -5   1 -11   50.40    6.06
  -5  -1 -11   46.16    5.90
  -5  -1 -11   51.43    5.51
  -6  -1 -11   19.47    3.39
  -6   1 -11   22.70    3.98
  -6  -1 -11   22.84    4.02
  -7   1 -11  104.65    8.80
  -7  -1 -11   87.36    8.36
  -7  -1 -11   92.63    7.85
  -8  -1 -11   20.87    3.10
  -8   1 -11   12.91    2.22
  -8   1 -11   20.22    3.47
  -8  -1 -11   19.55    3.47
  -9  -1 -11   38.82    4.74
  -9   1 -11   46.39    5.10
  -9  -1 -11   45.82    4.58
  -9   1 -11   43.04    3.84
 -10  -1 -11   40.58    4.40
 -10   1 -11   38.24    4.24
 -10  -1 -11   42.21    4.09
 -10   1 -11   34.38    3.19
 -11  -1 -11    0.36    0.90
 -11  -1 -11    0.22    0.86
 -11   1 -11    0.64    0.87
 -12  -1 -11   37.10    3.27
 -12   1 -11   30.40    3.15
  18  -2 -11   57.43    5.01
  18   2 -11   60.17    4.25
  17   2 -11    4.40    1.27
  17  -2 -11    2.81    1.55
  16  -2 -11  103.99    7.79
  16   2 -11   96.32    7.23
  15  -2 -11   31.57    3.97
  15   2 -11   31.07    3.23
  15   2 -11   26.54    3.79
  15  -2 -11   25.95    3.78
  15   2 -11   32.52    3.69
  14  -2 -11   52.32    5.65
  14   2 -11   54.56    4.77
  14   2 -11   37.58    5.01
  14  -2 -11   41.74    5.30
  14   2 -11   53.46    5.02
  13   2 -11  269.33   15.24
  13   2 -11  208.61   15.62
  13  -2 -11  212.82   15.85
  13   2 -11  258.50   15.19
  12   2 -11   -0.29    1.25
  12   2 -11   -0.31    1.34
  12   2 -11    1.27    1.79
  12  -2 -11    0.43    1.50
  11  -2 -11  252.59   16.07
  11   2 -11  221.00   15.92
  11  -2 -11  211.16   16.02
  11   2 -11  238.09   14.79
  10  -2 -11   90.84    8.17
  10   2 -11   91.21    8.52
  10  -2 -11   80.51    8.35
  10   2 -11   83.01    7.13
   9   2 -11    3.42    1.56
  -9  -2  11    0.97    1.13
   9   2 -11    3.71    1.90
   9  -2 -11   -0.48    1.48
   9   2 -11    2.78    1.74
  -8  -2  11  115.15    8.37
   8   2 -11  109.85    9.30
   8  -2 -11  103.15    9.16
   8   2 -11  112.30    8.59
   7   2 -11  190.30   13.51
   7  -2 -11  194.13   13.68
   7  -2 -11  172.26   12.98
   7   2 -11  210.14   13.66
   7   2 -11  163.94   11.95
   6   2 -11    8.57    2.46
   6   2 -11    7.75    1.94
   6  -2 -11    9.52    2.65
   6  -2 -11    4.96    1.94
   6   2 -11    5.39    2.33
   6  -2 -11    4.73    2.28
   5   2 -11  271.53   17.57
   5  -2 -11  267.08   17.72
   5  -2 -11  256.88   16.98
   5   2 -11  274.38   17.60
   5  -2 -11  254.50   17.13
  -5   2  11  256.65   24.64
  -5  -2  11  268.72   24.38
   4   2 -11   87.42    8.39
   4  -2 -11   98.97    8.80
   4  -2 -11   91.51    7.90
   4   2 -11  107.93    8.90
   4  -2 -11   98.50    8.52
  -4   2  11   93.03   13.42
  -4  -2  11   84.24   12.56
   3   2 -11   28.32    4.18
   3   2 -11   20.20    3.60
   3  -2 -11   22.08    3.82
   3  -2 -11   21.30    3.34
   3  -2 -11   19.05    3.46
  -3   2  11   24.95    6.68
  -3  -2  11   18.39    5.65
   2   2 -11   95.34    8.88
   2  -2 -11  120.83    9.85
   2   2 -11  122.89    9.65
   2  -2 -11  114.65    9.33
  -2   2  11   90.79   13.73
  -2  -2  11   96.63   13.37
  -1   2  11    5.47    2.98
  -1  -2  11    1.30    1.42
   1   2 -11   -0.41    1.11
   1   2 -11    0.42    1.21
   1  -2 -11    3.55    1.75
   1  -2 -11    1.62    1.66
   0   2 -11   91.17    8.30
   0   2 -11   83.92    8.13
   0  -2 -11   87.58    8.37
   0  -2 -11  109.49    8.85
  -1   2 -11   13.36    3.00
  -1   2 -11   13.03    2.98
  -1  -2 -11   16.05    3.29
  -1  -2 -11   12.32    2.84
  -2  -2 -11  149.03   11.93
  -2   2 -11  177.19   12.33
  -2   2 -11  161.27   12.01
  -2  -2 -11  160.25   12.20
  -3  -2 -11  307.87   19.06
  -3   2 -11  280.64   18.48
  -3   2 -11  284.18   18.43
  -4   2 -11   -0.37    1.33
  -4  -2 -11    0.40    1.46
  -4   2 -11   -0.39    1.58
  -5  -2 -11  289.14   18.00
  -5   2 -11  288.96   17.84
  -5   2 -11  253.80   17.10
  -6  -2 -11  115.01    9.11
  -6   2 -11  112.56    9.00
  -6   2 -11  105.02    8.47
  -7   2 -11    1.85    1.16
  -7  -2 -11    4.60    1.76
  -7   2 -11    3.50    1.67
  -8  -2 -11  125.91    9.09
  -8   2 -11  119.44    8.88
  -9  -2 -11   90.42    6.95
  -9   2 -11   95.64    7.00
 -10  -2 -11    9.57    1.66
 -10   2 -11    4.37    1.27
 -11  -2 -11  101.01    6.72
  16   3 -11    0.74    0.76
  16  -3 -11    3.13    3.02
  15   3 -11   99.54    6.91
  14   3 -11  172.47   10.46
  14   3 -11  202.98   11.61
  13   3 -11    1.39    1.13
  13  -3 -11    0.30    1.43
  13   3 -11   -0.37    1.02
  12  -3 -11  268.36   16.66
  12   3 -11  252.58   15.44
  12   3 -11  263.94   15.70
  11   3 -11  193.42   12.65
  11  -3 -11  167.01   12.29
  11   3 -11  174.73   11.62
  10   3 -11   73.29    6.77
  10  -3 -11   73.55    6.92
  10   3 -11   62.77    5.96
  -9  -3  11  488.56   27.22
   9   3 -11  521.86   29.04
   9  -3 -11  520.04   29.06
   9   3 -11  497.42   28.17
  -8  -3  11  191.83   12.52
   8  -3 -11  189.00   13.57
   8   3 -11  210.05   13.99
   8   3 -11  210.91   13.20
  -7  -3  11  178.24   11.81
   7  -3 -11  174.72   12.61
   7   3 -11  185.63   12.99
  -6  -3  11  484.36   26.13
   6  -3 -11  430.34   26.23
  -5  -3  11    1.61    1.45
   5  -3 -11    0.30    1.23
   5  -3 -11    0.40    1.67
   4  -3 -11  168.27   12.13
  -4  -3  11  196.28   12.81
   4  -3 -11  187.41   13.25
   3  -3 -11   63.11    5.97
  -3  -3  11   62.02    6.23
   3  -3 -11   65.76    6.74
  -2  -3  11  147.08   10.85
   2  -3 -11  135.00   10.89
  -1  -3  11  342.64   20.95
   1   3 -11  335.13   21.11
   1  -3 -11  341.90   21.32
   0   3 -11   35.25    4.70
   0  -3 -11   35.55    4.71
  -1   3 -11  135.31   10.38
  -1  -3 -11  127.27   10.30
   2  -3  11  335.57   19.88
  -2   3 -11  325.59   20.40
  -2  -3 -11  324.77   20.43
  -3   3 -11    0.36    1.37
   3  -3  11    0.29    1.28
  -3  -3 -11    1.49    1.47
   4  -3  11  326.87   18.93
  -4   3 -11  299.53   19.53
  -4  -3 -11  348.98   20.24
   5  -3  11  110.93    7.89
  -5   3 -11  117.48    8.97
  -5  -3 -11  110.78    8.88
   6  -3  11  141.04    8.96
  -6   3 -11  125.02    9.79
  -7   3 -11  344.54   20.52
  -7  -3 -11  386.50   21.17
  -8   3 -11   58.47    4.80
  -9   3 -11  103.26    6.58
 -10  -3 -11  220.72   12.29
  14   4 -11   26.52    2.47
  13   4 -11  331.06   17.99
  12  -4 -11   56.74    6.81
  12   4 -11   66.20    4.95
  11  -4 -11  183.18   12.69
  11   4 -11  173.74   10.90
  10   4 -11  400.14   21.37
  10   4 -11  386.22   20.81
   9   4 -11   12.55    2.21
  -9  -4  11    9.25    1.73
   9   4 -11   14.64    2.50
  -8  -4  11  190.18   11.78
   8   4 -11  220.59   13.00
   8   4 -11  182.97   12.04
  -7  -4  11   83.08    6.54
   7   4 -11   88.85    7.12
  -6  -4  11   39.56    4.16
   6   4 -11   38.96    4.47
  -5  -4  11  259.65   15.73
   5   4 -11  259.93   16.20
  -4  -4  11   61.46    5.98
   4   4 -11   88.50    7.01
  -3  -4  11  173.82   11.89
   3   4 -11  184.95   12.34
  -2  -4  11  592.89   32.06
   2   4 -11  564.72   32.21
   2  -4 -11  584.23   32.64
   1   4 -11    0.64    1.45
  -1  -4  11    4.49    2.10
   1  -4 -11    5.39    2.33
   0   4 -11  473.89   26.91
   1  -4  11  143.64    9.81
  -1   4 -11  136.80   10.15
   2  -4  11  108.20    7.81
   3  -4  11  372.18   20.65
   4  -4  11   67.52    5.16
  -4  -4 -11   77.66    6.18
  -5  -4 -11   98.17    7.21
  -6   4 -11  193.11   12.32
  -6  -4 -11  224.57   12.53
  -7   4 -11    1.40    0.88
  -7  -4 -11    1.94    0.78
   9   5 -11   57.78    4.06
   8   5 -11   14.29    1.79
   7   5 -11  154.57    8.48
   7   5 -11  135.87    8.16
   6   5 -11  211.87   11.64
   6   5 -11  185.63   11.23
   5   5 -11   -0.34    0.76
  -4  -5  11  159.33   10.14
   4   5 -11  176.67   10.34
  -3  -5  11   78.41    5.78
   3   5 -11   80.79    5.86
  -2  -5  11   26.23    2.99
   2   5 -11   28.39    2.99
   1   5 -11  195.40   11.67
   0  -5  11   31.79    3.10
   0   5 -11   34.04    3.24
   1  -5  11   72.14    5.08
  -1   5 -11   75.08    5.40
  -2   5 -11  192.60   11.22
  -3   5 -11    4.64    1.07
  17   0 -12   92.72    6.31
  16   0 -12   43.05    3.90
  16   0 -12   26.36    3.99
  15   0 -12   10.47    2.15
  15   0 -12    9.27    2.41
  14   0 -12  176.13   11.53
  14   0 -12  158.50   12.42
  13   0 -12   42.10    4.72
  13   0 -12   30.80    4.83
  12   0 -12   73.63    6.83
  12   0 -12   77.08    7.81
  11   0 -12  173.37   12.37
  11   0 -12  177.64   13.59
  10   0 -12    4.10    2.31
   9   0 -12  240.11   17.25
   8   0 -12  163.93   12.80
   8   0 -12  163.82   12.10
   7   0 -12  183.63   14.02
   7   0 -12  173.58   12.46
   7   0 -12  208.42   13.62
   6   0 -12  887.29   49.16
   6   0 -12  866.99   46.98
   6   0 -12  907.62   48.04
   5   0 -12  267.56   17.54
   5   0 -12  226.65   15.10
   5   0 -12  256.79   16.26
   4   0 -12  585.60   35.51
   4   0 -12  636.45   34.49
   3   0 -12 1227.08   64.52
   3   0 -12 1174.12   62.70
   2   0 -12   21.73    4.27
   2   0 -12   20.63    3.31
   1   0 -12  430.57   23.92
   1   0 -12  392.67   25.57
   0   0 -12  173.86   11.72
   0   0 -12  202.93   14.31
  -1   0 -12   16.99    3.60
  -2   0 -12  540.75   30.15
  -2   0 -12  479.56   27.62
  -3   0 -12  141.69   11.39
  -4   0 -12  139.62   11.10
  -5   0 -12  489.33   28.76
  -6   0 -12   77.52    7.33
  -7   0 -12  147.82   10.86
  -8   0 -12  518.20   28.93
  -9   0 -12    8.20    1.87
 -10   0 -12  162.59   10.11
  17  -1 -12   40.78    3.76
  16  -1 -12   21.67    2.89
  16   1 -12   18.21    2.35
  15  -1 -12  184.48   11.35
  15   1 -12  183.26   10.80
  15   1 -12  148.80   11.45
  15  -1 -12  149.64   11.52
  14  -1 -12   19.94    3.13
  14   1 -12   15.05    2.60
  14   1 -12   14.34    2.97
  14  -1 -12   14.22    2.96
  13  -1 -12  168.16   11.37
  13   1 -12  167.68   10.99
  13   1 -12  141.19   11.62
  13  -1 -12  148.39   11.85
  12   1 -12   84.83    7.06
  12   1 -12   75.39    7.71
  12  -1 -12   74.65    7.78
  11   1 -12   77.56    6.83
  11   1 -12   64.56    7.11
  11  -1 -12   64.97    7.24
  10   1 -12  324.53   20.68
  10  -1 -12  365.66   21.14
  10   1 -12  360.25   21.00
  10   1 -12  329.42   21.93
  10  -1 -12  323.34   21.83
   9   1 -12   46.32    5.50
   9  -1 -12   55.56    5.86
   9   1 -12   53.42    5.75
   8   1 -12  297.59   18.54
   8  -1 -12  328.78   19.12
   8   1 -12  275.20   19.14
   8  -1 -12  274.40   19.28
   7   1 -12  222.87   16.05
   7  -1 -12  236.56   16.35
   7   1 -12  232.25   15.27
   7  -1 -12  235.58   15.50
   6  -1 -12   12.08    2.72
   6   1 -12    7.58    2.57
   6  -1 -12    9.59    2.77
   6   1 -12    9.46    2.43
   5   1 -12  181.20   13.47
   5  -1 -12  173.96   13.39
   5   1 -12  176.28   12.40
   5  -1 -12  195.22   12.84
   5  -1 -12  170.91   11.90
   4   1 -12  269.76   17.59
   4  -1 -12  266.53   17.60
   4   1 -12  251.94   16.16
   4  -1 -12  244.24   16.02
   4  -1 -12  240.05   15.67
   3   1 -12   22.53    3.43
   3   1 -12   23.69    4.14
   3  -1 -12   16.41    3.63
   3  -1 -12   29.98    3.81
   3  -1 -12   18.25    3.10
   2  -1 -12  618.34   34.12
   2   1 -12  627.52   36.20
   2  -1 -12  649.53   36.61
   2   1 -12  652.04   34.90
   2  -1 -12  613.29   34.58
   1   1 -12  265.26   16.25
   1   1 -12  256.19   17.48
   1  -1 -12  244.17   17.40
   1  -1 -12  256.37   16.22
   0   1 -12   88.63    7.45
   0   1 -12   86.83    8.46
   0  -1 -12   91.53    8.75
   0  -1 -12   94.98    7.78
  -1   1 -12  665.89   36.05
  -1  -1 -12  649.67   36.39
  -1   1 -12  684.50   38.00
  -1  -1 -12  660.60   37.94
  -2   1 -12   74.94    7.35
  -2  -1 -12   77.88    7.57
  -2  -1 -12   62.49    6.30
  -3   1 -12  352.44   21.99
  -3  -1 -12  358.25   22.28
  -3  -1 -12  354.33   21.18
  -4   1 -12  336.14   20.69
  -4  -1 -12  323.65   20.64
  -5  -1 -12   14.44    3.08
  -5   1 -12   15.94    3.04
  -6  -1 -12  356.20   21.74
  -6   1 -12  364.87   21.64
  -7  -1 -12  171.53   11.73
  -7   1 -12  167.67   11.61
  -8  -1 -12   87.22    6.95
  -8   1 -12   85.98    6.85
  -9  -1 -12  246.37   14.07
  -9   1 -12  236.59   13.92
  -9  -1 -12  225.01   13.47
 -10   1 -12   14.72    2.03
 -10  -1 -12   10.53    1.58
  17  -2 -12    8.54    2.19
  16  -2 -12   17.99    2.60
  16   2 -12   16.24    1.96
  15   2 -12    1.10    0.97
  15  -2 -12    3.95    1.42
  15   2 -12    2.15    0.93
  14   2 -12   61.80    4.89
  14   2 -12   56.46    4.82
  13   2 -12    5.90    1.55
  13   2 -12    6.29    1.67
  12   2 -12   20.48    3.08
  12  -2 -12   20.44    3.45
  12   2 -12   25.06    3.00
  11   2 -12   51.00    5.42
  11  -2 -12   46.57    5.29
  11   2 -12   48.88    5.01
  11   2 -12   50.25    4.60
  10   2 -12   66.38    6.52
  10  -2 -12   69.78    6.65
  10   2 -12   68.13    5.62
   9   2 -12   54.20    5.78
   9  -2 -12   49.52    5.51
  -8  -2  12  247.12   15.20
   8   2 -12  272.76   16.78
   8  -2 -12  257.19   16.49
  -7  -2  12    1.05    1.22
   7  -2 -12    1.02    1.49
   7   2 -12   -0.36    1.40
   6   2 -12  184.56   13.59
   6  -2 -12  204.54   14.04
   6  -2 -12  206.06   13.57
   6   2 -12  201.14   13.62
   5   2 -12  119.12    9.46
   5  -2 -12  119.84    9.67
   5  -2 -12  108.44    8.66
   5   2 -12  109.10    9.00
   5  -2 -12  113.37    9.08
   4   2 -12   22.43    3.57
   4  -2 -12   20.46    3.41
   4   2 -12   15.52    3.12
   4  -2 -12   18.69    3.46
   3   2 -12  153.84   11.47
   3  -2 -12  151.37   11.61
   3   2 -12  156.79   11.31
   3  -2 -12  153.88   11.27
   2   2 -12   13.64    2.84
   2  -2 -12   19.62    3.32
   2   2 -12   15.53    2.91
   2  -2 -12   12.08    2.81
   1   2 -12  120.00    9.51
   1  -2 -12  110.94    9.42
   1   2 -12  116.48    9.24
   1  -2 -12  120.38    9.40
   0   2 -12  159.03   11.39
   0  -2 -12  142.39   11.29
   0   2 -12  152.10   11.04
   0  -2 -12  157.38   11.26
  -1   2 -12    8.53    2.20
  -1   2 -12    7.21    2.18
  -1  -2 -12    6.12    2.35
  -1  -2 -12    5.25    1.94
  -2   2 -12  220.17   15.39
  -2   2 -12  236.52   15.22
  -2  -2 -12  243.18   15.91
  -2  -2 -12  262.65   15.88
  -3   2 -12  123.43    8.94
  -3   2 -12  109.56    9.08
  -3  -2 -12  114.79    9.33
  -3  -2 -12  127.81    9.35
  -4   2 -12   10.85    2.21
  -4   2 -12   12.49    2.55
  -4  -2 -12   13.22    2.62
  -4  -2 -12   11.62    2.51
  -5   2 -12  103.73    8.09
  -5  -2 -12  100.35    8.22
  -5  -2 -12  112.02    8.30
   6  -2  12   45.63    3.80
  -6   2 -12   47.13    4.48
  -6  -2 -12   33.82    4.09
  -6  -2 -12   43.90    4.47
  -7   2 -12   58.41    5.04
  -7  -2 -12   54.18    5.03
  -8   2 -12   70.07    5.57
  -8  -2 -12   74.91    5.74
  -9  -2 -12    6.25    1.28
  14  -3 -12   46.62    4.68
  14   3 -12   47.89    3.76
  13   3 -12    0.45    0.83
  13  -3 -12   -0.87    1.51
  13   3 -12    0.39    0.76
  12  -3 -12   33.64    4.14
  12   3 -12   39.39    3.62
  12   3 -12   42.38    3.66
  11   3 -12    0.18    0.83
  11  -3 -12    0.26    1.16
  11   3 -12   -0.62    1.25
  11   3 -12   -0.52    1.03
  10   3 -12   33.11    3.92
  10  -3 -12   28.59    3.64
  10   3 -12   24.30    2.89
  -9  -3  12   17.60    2.18
   9  -3 -12   17.87    3.00
   9   3 -12   22.53    2.68
  -8  -3  12    0.78    0.88
   8  -3 -12    1.10    1.40
  -7  -3  12   29.60    3.34
  -6  -3  12   79.59    6.40
  -5  -3  12    6.69    1.83
  -4  -3  12   39.42    4.25
   4   3 -12   35.06    4.32
   4  -3 -12   38.04    4.55
   3   3 -12   16.44    3.02
  -3  -3  12   16.62    2.80
   3  -3 -12   14.48    2.88
   2   3 -12   -0.33    1.44
  -2  -3  12    0.92    1.60
   2  -3 -12    1.35    1.32
   1   3 -12    5.49    1.71
  -1  -3  12    4.37    1.76
   1  -3 -12    6.34    2.01
   0   3 -12    0.94    1.45
   0  -3 -12    0.98    1.24
  -1   3 -12    5.07    1.67
  -1  -3 -12    0.95    1.39
  -2   3 -12    0.28    1.11
   2  -3  12    3.50    1.52
  -2  -3 -12    2.12    1.52
  -3   3 -12   10.36    2.23
   3  -3  12   12.01    2.08
  -3  -3 -12    7.69    2.07
  -4   3 -12   11.73    2.17
   4  -3  12   12.03    1.97
  -4  -3 -12   10.01    2.16
  -5   3 -12    2.30    1.11
   5  -3  12    2.40    0.93
  -5  -3 -12    2.83    1.34
  -6   3 -12   24.99    2.70
  -6  -3 -12   33.99    3.37
  -7  -3 -12   42.00    3.64
  11   4 -12    1.97    0.71
  10   4 -12   24.67    2.49
  10   4 -12   30.80    2.63
   9   4 -12   50.94    4.52
   9   4 -12   54.85    4.03
   8   4 -12    6.05    1.22
   8   4 -12    8.32    1.74
  -7  -4  12   22.45    2.49
   7   4 -12   29.33    3.21
  -6  -4  12   50.67    4.34
   6   4 -12   58.48    4.93
  -5  -4  12    3.23    1.30
   5   4 -12    2.57    1.26
   4   4 -12   12.37    2.27
  -4  -4  12   12.64    2.17
   3   4 -12    9.32    1.99
  -3  -4  12    9.64    1.93
   2   4 -12    0.71    1.04
  -2  -4  12    0.66    1.05
  -1  -4  12   52.37    4.71
   0  -4 -12   39.74    4.16
   1  -4  12    4.09    1.22
  -1  -4 -12    2.27    1.32
   2  -4  12   42.02    3.58
  -2   4 -12   40.03    3.94
  -2  -4 -12   48.64    4.35
  -3   4 -12   10.29    1.68
   3  -4  12    9.90    1.43
  -4   4 -12    0.14    0.52
  16   0 -13    0.13    0.63
  15   0 -13    0.17    0.93
  14   0 -13   -0.42    1.08
  13   0 -13   -0.48    1.11
  12   0 -13    2.13    1.40
   9   0 -13   -0.32    1.43
   8   0 -13    0.65    1.23
   7   0 -13   -0.98    1.47
   7   0 -13   -0.41    1.18
   6   0 -13    1.30    1.62
   6   0 -13   -0.41    1.35
   5   0 -13    0.95    1.25
   5   0 -13    1.67    1.58
   4   0 -13    0.61    1.19
   4   0 -13    0.42    1.46
   3   0 -13    0.85    1.66
   3   0 -13   -0.28    1.06
   2   0 -13    0.42    1.66
   1   0 -13   -0.41    1.57
   0   0 -13    1.22    1.60
  -1   0 -13    1.19    1.37
  -2   0 -13    0.38    1.44
  -3   0 -13   -1.08    1.36
  -4   0 -13    0.67    1.22
  -5   0 -13   -0.31    1.56
  -6   0 -13   -0.53    1.08
  -7   0 -13   -1.09    1.04
  -8   0 -13   -0.33    0.65
  16  -1 -13   29.91    2.91
  15  -1 -13    0.86    0.92
  15   1 -13   -0.42    0.71
  14  -1 -13  136.37    8.94
  14   1 -13  126.67    8.43
  13   1 -13   85.42    6.44
  12   1 -13    2.20    1.31
  11  -1 -13  136.99    9.86
  11   1 -13  141.85    9.81
  10  -1 -13  151.61   10.67
  10   1 -13  150.61   10.55
   9  -1 -13    4.84    1.79
   8   1 -13  113.70    8.42
  -8  -1  13  106.56    7.40
   8  -1 -13  111.30    8.62
   7   1 -13   92.57    7.62
   7  -1 -13  101.82    8.05
   7   1 -13  110.24    8.30
   7  -1 -13   94.07    8.52
   6   1 -13   66.71    6.76
   6  -1 -13   59.43    6.68
   6   1 -13   71.89    6.15
   6  -1 -13   75.11    6.45
   6   1 -13   73.05    6.50
   5   1 -13  120.31   10.00
   5  -1 -13  132.41   10.38
   5   1 -13  129.53    9.10
   5  -1 -13  122.64    9.16
   4   1 -13    5.07    2.07
   4  -1 -13    7.62    2.38
   4   1 -13    7.65    1.83
   3   1 -13  156.45   11.62
   3  -1 -13  150.78   11.64
   2   1 -13  131.12   10.12
   2  -1 -13  138.12   10.38
   2  -1 -13  111.57    8.44
   1   1 -13    6.88    2.14
   1  -1 -13    2.37    1.79
   1  -1 -13    5.18    1.54
   0   1 -13  186.97   12.72
   0  -1 -13  188.09   12.85
   0  -1 -13  160.99   11.15
  -1   1 -13   97.23    8.06
  -1  -1 -13   97.09    8.30
  -1  -1 -13   83.71    6.79
  -2   1 -13   10.32    2.51
  -2  -1 -13   12.43    2.67
  -2  -1 -13   14.09    2.24
  -3   1 -13   34.00    4.25
  -3  -1 -13   36.79    4.50
  -3  -1 -13   32.99    3.57
  -4   1 -13   11.96    2.51
  -4  -1 -13   14.51    2.63
  -4  -1 -13   10.74    1.91
  -5   1 -13   15.80    2.64
  -5  -1 -13   21.04    3.13
  -5  -1 -13   19.57    2.45
  -6   1 -13    8.57    1.89
  -6  -1 -13   11.71    2.10
  -6  -1 -13    7.19    1.41
  -7   1 -13   10.29    1.81
  -7  -1 -13   13.38    1.97
  -7  -1 -13    7.76    1.32
  -8  -1 -13   26.16    2.58
  14   2 -13  131.76    7.83
  13   2 -13   16.38    2.10
  13  -2 -13   12.34    2.19
  12  -2 -13  283.81   17.45
  12   2 -13  321.57   17.28
  11  -2 -13   44.04    4.55
  11   2 -13   45.96    4.32
  10  -2 -13  279.43   16.81
  10   2 -13  283.65   16.69
   9   2 -13  254.33   16.00
   9  -2 -13  258.78   15.99
   9   2 -13  278.88   16.10
  -8  -2  13    0.51    0.87
   8  -2 -13    2.86    1.63
   8   2 -13    1.92    1.24
  -7  -2  13  245.43   14.75
   7   2 -13  274.92   15.94
   7  -2 -13  249.30   15.41
  -6  -2  13  313.51   18.14
   6   2 -13  321.30   18.82
  -5  -2  13   10.81    2.14
   5  -2 -13   11.45    2.52
   5   2 -13    7.29    1.92
   4   2 -13  323.55   19.31
   4  -2 -13  331.81   19.59
   4   2 -13  313.24   18.89
   3   2 -13  144.73   10.08
   3  -2 -13  138.67   10.19
   3   2 -13  142.40    9.80
   3  -2 -13  133.07    9.67
   2   2 -13   35.42    4.27
   2  -2 -13   43.43    4.73
   2   2 -13   39.74    4.24
   2  -2 -13   40.56    4.35
   1   2 -13  327.69   19.13
   1  -2 -13  315.95   19.20
   1   2 -13  325.79   18.71
   1  -2 -13  314.54   18.84
   0   2 -13   65.45    5.76
   0  -2 -13   61.93    5.74
   0   2 -13   59.66    5.22
   0  -2 -13   56.55    5.35
  -1   2 -13  183.37   12.17
  -1  -2 -13  194.64   12.51
  -1  -2 -13  192.62   12.21
  -2   2 -13  204.33   13.30
  -2  -2 -13  211.66   13.49
  -2  -2 -13  230.25   13.51
  -3   2 -13    0.68    1.01
  -3  -2 -13    1.19    0.98
  -3  -2 -13    1.13    1.08
   4  -2  13  205.35   11.55
  -4   2 -13  179.83   11.62
  -4  -2 -13  178.11   11.73
  -4  -2 -13  217.61   12.10
  -5   2 -13  109.64    7.89
   5  -2  13  133.04    7.79
  -5  -2 -13  125.71    8.17
  -6  -2 -13   16.09    1.98
  12   3 -13   12.38    1.58
  11  -3 -13   93.77    7.16
  11   3 -13  126.38    7.17
  10   3 -13  138.26    8.70
   9   3 -13   22.65    2.75
  -8  -3  13  267.37   14.98
   8   3 -13  298.97   16.40
  -7  -3  13   74.25    5.41
   7   3 -13   86.53    6.38
  -6  -3  13  126.25    8.26
   6   3 -13  132.02    8.92
  -5  -3  13  559.17   29.95
   5   3 -13  570.12   30.53
  -4  -3  13   46.82    4.47
   4   3 -13   60.82    5.07
  -3  -3  13  269.12   15.89
   3   3 -13  277.30   16.20
  -2  -3  13  348.69   20.40
   2   3 -13  382.68   20.68
   1   3 -13   -0.22    1.14
  -1  -3  13    0.22    1.15
   1  -3 -13    0.95    1.12
   0   3 -13  342.95   19.13
   0  -3 -13  338.95   19.43
  -1   3 -13  106.41    7.38
  -1  -3 -13  116.36    7.86
   2  -3  13   40.81    3.54
  -2   3 -13   34.42    3.38
   3  -3  13  381.82   18.80
  -3  -3 -13  391.26   19.52
  -4  -3 -13  113.34    7.25
   7   4 -13   97.51    5.02
   7   4 -13   41.84    3.89
   6   4 -13  135.53    8.27
  -5  -4  13   17.67    1.88
  -4  -4  13  183.14   10.39
  -3  -4  13   59.98    4.32
  -2  -4  13   69.68    4.86
  -1  -4  13  382.88   20.68
   1   4 -13  405.52   20.87
   0   4 -13   61.71    4.31
  14   0 -14    7.78    1.39
  13   0 -14  173.41   10.40
  10   0 -14  336.53   19.09
   9   0 -14  201.66   12.52
   8   0 -14  149.29    9.92
   7   0 -14  573.48   30.97
   6   0 -14   70.25    6.08
   6   0 -14   98.06    7.54
   5   0 -14  267.41   16.87
   5   0 -14  270.27   15.77
   4   0 -14  320.81   19.46
   3   0 -14    0.65    1.32
   2   0 -14  375.43   22.10
   1   0 -14  110.02    8.57
   0   0 -14  114.40    8.69
  -1   0 -14  496.18   27.70
  -2   0 -14   52.97    5.03
  -3   0 -14  372.99   21.11
  -4   0 -14  417.81   22.97
  -5   0 -14    5.57    1.36
  13  -1 -14   71.65    5.73
  13   1 -14  100.78    5.92
  12  -1 -14   77.33    6.19
  12   1 -14  103.94    6.39
  11  -1 -14  303.40   17.58
  11   1 -14  322.97   17.64
  10  -1 -14   25.63    3.09
   9  -1 -14  221.29   13.61
   9   1 -14  235.04   13.78
   8  -1 -14  225.46   13.83
   8   1 -14  240.98   14.14
  -7  -1  14   12.31    1.77
   7  -1 -14   13.74    2.22
   7   1 -14   14.67    2.39
   6   1 -14  266.52   15.74
   5   1 -14   92.27    7.48
   5  -1 -14   94.99    7.62
   5   1 -14   89.54    6.81
   4   1 -14   60.67    5.79
   4  -1 -14   67.34    6.02
   4   1 -14   64.48    5.29
   3   1 -14  339.26   19.98
   3  -1 -14  349.43   20.20
   3   1 -14  331.40   18.80
   2   1 -14   22.78    3.28
   2  -1 -14   27.90    3.58
   1   1 -14  290.81   17.69
   1  -1 -14  304.75   17.94
   0   1 -14  278.27   16.13
   0  -1 -14  250.88   15.97
  -1  -1 -14    4.85    1.66
  -1   1 -14    4.70    1.57
  -2   1 -14  161.14   10.40
  -2  -1 -14  159.66   10.49
  -3   1 -14  106.26    7.40
  -3  -1 -14  107.83    7.52
  -4   1 -14   11.63    1.79
  -4  -1 -14   13.82    1.94
  12   2 -14   72.17    4.80
  11  -2 -14    3.13    1.11
  11   2 -14    7.25    1.29
  10  -2 -14   34.10    3.45
  10   2 -14   50.24    3.85
   9   2 -14   42.27    3.80
   7   2 -14   78.50    5.55
  -7  -2  14   66.84    4.77
   7   2 -14   76.88    5.72
  -6  -2  14    0.43    0.61
   6   2 -14    0.99    0.99
   6   2 -14    1.24    0.82
  -5  -2  14  114.52    7.43
   5   2 -14  112.56    7.46
   5   2 -14  113.11    7.70
  -4  -2  14   93.75    6.28
   4   2 -14   80.54    6.18
  -3  -2  14    4.12    1.33
   3   2 -14    5.17    1.37
  -2  -2  14   77.21    5.39
   2  -2 -14   73.79    5.41
   1   2 -14   82.26    5.86
   1  -2 -14   81.98    5.98
  -1  -2  14   79.74    5.94
   0  -2  14    1.23    0.92
   0   2 -14    0.80    0.66
   0  -2 -14    1.20    0.81
  -1   2 -14   65.35    4.69
  -1  -2 -14   61.73    4.56
   2  -2  14   28.82    2.71
   3  -2  14   33.79    2.77
   8   3 -14    9.00    1.37
   6   3 -14   13.50    1.75
  -5  -3  14   20.72    2.06
   5   3 -14   23.16    2.32
   5   3 -14   19.68    2.27
  -4  -3  14    0.23    0.55
   4   3 -14    0.13    0.59
   4   3 -14   -0.13    0.54
   3   3 -14    3.31    0.98
   3   3 -14    6.46    1.16
  -2  -3  14    2.88    0.96
  -1  -3  14    2.82    0.80
   9   0 -15    0.12    0.54
   8   0 -15    0.59    0.61
   3   0 -15    0.21    0.74
   2   0 -15   -0.20    0.86
   1   0 -15    0.18    0.70
   0   0 -15    0.17    0.64
  -1   0 -15   -0.15    0.48
   9   1 -15   41.22    3.30
   8   1 -15    0.24    0.63
   7   1 -15   21.64    2.26
   6   1 -15   47.10    3.62
  -5  -1  15    1.34    0.55
  -4  -1  15   58.82    4.16
  -3  -1  15   37.67    3.08
  -2  -1  15   13.06    1.74
  -1  -1  15   72.90    5.06
   1  -1 -15   81.04    5.46
   0  -1  15    1.19    0.75
   0  -1 -15    2.67    0.85
   0   0   0    0.00    0.00


TITL tf-10 in P2(1)/c
REM P2(1)/c (#14 in standard setting)
CELL 1.54184  18.550585   6.157751  12.315058  90.0000 101.7780  90.0000
ZERR    4.00   0.000541   0.000179   0.000309   0.0000   0.0026   0.0000
LATT  1
SYMM -x, y+1/2,-z+1/2
SFAC C H N O Se
UNIT 60.00 52.00 4.00 8.00 4.00
TREF
HKLF 4
END
_computing_structure_solution     'SHELXT 2018/2 (Sheldrick, 2018)'
;
_shelx_hkl_checksum                290
_olex2_submission_special_instructions  'No special instructions were received'
