 
data_shelx
 
_audit_creation_method            'SHELXL-2016/6'
_shelx_SHELXL_version_number      '2016/6'
_chemical_name_systematic         ?
_chemical_name_common             ?
_chemical_melting_point           ?
_chemical_formula_moiety          ?
_chemical_formula_sum
 'C19 H13 N3 O Se' 
_chemical_formula_weight          378.28
_chemical_oxdiff_usercomment 'Toms Se compound (TF57) from pyridine'

loop_
 _atom_type_symbol
 _atom_type_description
 _atom_type_scat_dispersion_real
 _atom_type_scat_dispersion_imag
 _atom_type_scat_source
 'C'  'C'   0.0181   0.0091
 'International Tables Vol C Tables 4.2.6.8 and 6.1.1.4'
 'H'  'H'   0.0000   0.0000
 'International Tables Vol C Tables 4.2.6.8 and 6.1.1.4'
 'N'  'N'   0.0311   0.0180
 'International Tables Vol C Tables 4.2.6.8 and 6.1.1.4'
 'O'  'O'   0.0492   0.0322
 'International Tables Vol C Tables 4.2.6.8 and 6.1.1.4'
 'Se'  'Se'  -0.7943   1.1372
 'International Tables Vol C Tables 4.2.6.8 and 6.1.1.4'
 
_space_group_crystal_system       monoclinic
_space_group_IT_number            14
_space_group_name_H-M_alt         'P 21/c'
_space_group_name_Hall            '-P 2ybc'
 
_shelx_space_group_comment
;
The symmetry employed for this shelxl refinement is uniquely defined
by the following loop, which should always be used as a source of
symmetry information in preference to the above space-group names.
They are only intended as comments.
;
 
loop_
 _space_group_symop_operation_xyz
 'x, y, z'
 '-x, y+1/2, -z+1/2'
 '-x, -y, -z'
 'x, -y-1/2, z-1/2'
 
_cell_length_a                    20.7476(9)
_cell_length_b                    4.9407(2)
_cell_length_c                    17.6687(7)
_cell_angle_alpha                 90
_cell_angle_beta                  107.376(4)
_cell_angle_gamma                 90
_cell_volume                      1728.52(13)
_cell_formula_units_Z             4
_cell_measurement_temperature   130.01(10) 
_cell_measurement_reflns_used   2450
_cell_measurement_theta_min     5.0370
_cell_measurement_theta_max     75.2980
 
_exptl_crystal_description        NEEDLE
_exptl_crystal_colour             COLOURLESS
_exptl_crystal_density_meas       ?
_exptl_crystal_density_method     ?
_exptl_crystal_density_diffrn     1.454          
_exptl_crystal_F_000              760
_exptl_transmission_factor_min    ?
_exptl_transmission_factor_max    ?
_exptl_crystal_size_max                             0.564
_exptl_crystal_size_mid                             0.051
_exptl_crystal_size_min                             0.030
_exptl_absorpt_coefficient_mu     3.018
_shelx_estimated_absorpt_T_min    ?
_shelx_estimated_absorpt_T_max    ?
_exptl_absorpt_correction_T_min                     0.486
_exptl_absorpt_correction_T_max                     0.913
_exptl_absorpt_correction_type            gaussian
_exptl_absorpt_process_details
;
CrysAlisPro 1.171.38.43 (Rigaku Oxford Diffraction, 2015)
Numerical absorption correction based on gaussian integration over
			a multifaceted crystal model
Empirical absorption correction using spherical harmonics,
 implemented in SCALE3 ABSPACK scaling algorithm.
;
_oxdiff_exptl_absorpt_empirical_full_min           0.670
_oxdiff_exptl_absorpt_empirical_full_max           1.534
_oxdiff_exptl_absorpt_empirical_details
;
Empirical correction (ABSPACK) includes:
- Absorption correction using spherical harmonics
- Frame scaling
;
_diffrn_ambient_temperature 130.01(10) 
_diffrn_ambient_environment N~2~
_diffrn_source 'micro-focus sealed X-ray tube'
_diffrn_source_type 'SuperNova (Cu) X-ray Source'
_diffrn_radiation_probe x-ray
_diffrn_radiation_type 'Cu K\a'
_diffrn_radiation_wavelength 1.54184
_diffrn_radiation_monochromator mirror
_diffrn_measurement_device 'four-circle diffractometer'
_diffrn_measurement_device_type 'SuperNova, Dual, Cu at zero, Atlas'
_diffrn_detector 'CCD plate'
_diffrn_detector_type Atlas
_diffrn_measurement_method '\w scans'
_diffrn_detector_area_resol_mean 10.2273
_diffrn_reflns_number             5766
_diffrn_reflns_av_unetI/netI      0.0457
_diffrn_reflns_av_R_equivalents   0.0301
_diffrn_reflns_limit_h_min        -25
_diffrn_reflns_limit_h_max        21
_diffrn_reflns_limit_k_min        -6
_diffrn_reflns_limit_k_max        5
_diffrn_reflns_limit_l_min        -22
_diffrn_reflns_limit_l_max        21
_diffrn_reflns_theta_min          4.466
_diffrn_reflns_theta_max          75.764
_diffrn_reflns_theta_full         67.684
_diffrn_measured_fraction_theta_max   0.952
_diffrn_measured_fraction_theta_full  0.991
_diffrn_reflns_Laue_measured_fraction_max    0.952
_diffrn_reflns_Laue_measured_fraction_full   0.991
_diffrn_reflns_point_group_measured_fraction_max   0.952
_diffrn_reflns_point_group_measured_fraction_full  0.991
_reflns_number_total              3419
_reflns_number_gt                 2889
_reflns_threshold_expression      'I > 2\s(I)'
_reflns_Friedel_coverage          0.000
_reflns_Friedel_fraction_max      .
_reflns_Friedel_fraction_full     .
 
_reflns_special_details
;
 Reflections were merged by SHELXL according to the crystal
 class for the calculation of statistics and refinement.
 
 Structure factors included contributions from the .fab file.
 
 _reflns_Friedel_fraction is defined as the number of unique
 Friedel pairs measured divided by the number that would be
 possible theoretically, ignoring centric projections and
 systematic absences.
;
 
_computing_data_collection     'CrysAlisPro 1.171.38.43 (Rigaku OD, 2015)'
_computing_cell_refinement     'CrysAlisPro 1.171.38.43 (Rigaku OD, 2015)'
_computing_data_reduction      'CrysAlisPro 1.171.38.43 (Rigaku OD, 2015)'
_computing_structure_solution     ?
_computing_structure_refinement 'SHELXL-2016/6 (Sheldrick, 2016)'
_computing_molecular_graphics     ?
_computing_publication_material   ?
_refine_special_details           ?
_refine_ls_structure_factor_coef  Fsqd
_refine_ls_matrix_type            full
_refine_ls_weighting_scheme       calc
_refine_ls_weighting_details
'w=1/[\s^2^(Fo^2^)+(0.0439P)^2^+0.5473P] where P=(Fo^2^+2Fc^2^)/3'
_atom_sites_solution_primary      ?
_atom_sites_solution_secondary    ?
_atom_sites_solution_hydrogens    geom
_refine_ls_hydrogen_treatment     constr
_refine_ls_extinction_method      none
_refine_ls_extinction_coef        .
_refine_ls_number_reflns          3419
_refine_ls_number_parameters      217
_refine_ls_number_restraints      0
_refine_ls_R_factor_all           0.0422
_refine_ls_R_factor_gt            0.0346
_refine_ls_wR_factor_ref          0.0955
_refine_ls_wR_factor_gt           0.0908
_refine_ls_goodness_of_fit_ref    1.054
_refine_ls_restrained_S_all       1.054
_refine_ls_shift/su_max           0.001
_refine_ls_shift/su_mean          0.000
 
loop_
 _atom_site_label
 _atom_site_type_symbol
 _atom_site_fract_x
 _atom_site_fract_y
 _atom_site_fract_z
 _atom_site_U_iso_or_equiv
 _atom_site_adp_type
 _atom_site_occupancy
 _atom_site_site_symmetry_order  
 _atom_site_calc_flag
 _atom_site_refinement_flags_posn
 _atom_site_refinement_flags_adp
 _atom_site_refinement_flags_occupancy
 _atom_site_disorder_assembly
 _atom_site_disorder_group
C1 C 0.80998(14) 0.1037(5) 0.73159(16) 0.0244(5) Uani 1 1 d . . . . .
C2 C 0.86557(14) 0.2437(5) 0.72223(15) 0.0230(5) Uani 1 1 d . . . . .
C3 C 0.93052(14) 0.1840(5) 0.76965(16) 0.0243(5) Uani 1 1 d . . . . .
H3 H 0.967315 0.279123 0.763531 0.029 Uiso 1 1 calc R U . . .
C4 C 0.93997(14) -0.0187(6) 0.82614(16) 0.0271(5) Uani 1 1 d . . . . .
H4 H 0.983207 -0.058649 0.858542 0.033 Uiso 1 1 calc R U . . .
C5 C 0.88461(15) -0.1627(5) 0.83441(16) 0.0279(6) Uani 1 1 d . . . . .
H5 H 0.891468 -0.299854 0.872043 0.033 Uiso 1 1 calc R U . . .
C6 C 0.81952(15) -0.1048(5) 0.78743(17) 0.0276(6) Uani 1 1 d . . . . .
H6 H 0.782915 -0.202795 0.792963 0.033 Uiso 1 1 calc R U . . .
C7 C 0.84984(14) 0.4475(5) 0.65942(15) 0.0228(5) Uani 1 1 d . . . . .
C8 C 0.75304(14) 0.6168(6) 0.55661(16) 0.0262(5) Uani 1 1 d . . . . .
C9 C 0.80125(14) 0.7934(5) 0.53586(16) 0.0260(5) Uani 1 1 d . . . . .
C10 C 0.86987(14) 0.7793(5) 0.57982(15) 0.0235(5) Uani 1 1 d . . . . .
C11 C 0.91587(15) 0.9551(5) 0.55972(16) 0.0276(5) Uani 1 1 d . . . . .
H11 H 0.961542 0.946865 0.587792 0.033 Uiso 1 1 calc R U . . .
C12 C 0.89353(16) 1.1388(6) 0.49878(17) 0.0307(6) Uani 1 1 d . . . . .
H12 H 0.924164 1.255345 0.486530 0.037 Uiso 1 1 calc R U . . .
C13 C 0.82455(16) 1.1514(6) 0.45483(17) 0.0326(6) Uani 1 1 d . . . . .
H13 H 0.809867 1.275460 0.413675 0.039 Uiso 1 1 calc R U . . .
C14 C 0.77920(16) 0.9804(6) 0.47292(17) 0.0311(6) Uani 1 1 d . . . . .
H14 H 0.733801 0.987619 0.443662 0.037 Uiso 1 1 calc R U . . .
C15 C 0.61966(16) -0.2447(7) 0.6826(2) 0.0365(7) Uani 1 1 d . . . . .
H15 H 0.622412 -0.277621 0.631869 0.044 Uiso 1 1 calc R U . . .
C16 C 0.57223(18) -0.3857(8) 0.7081(2) 0.0459(8) Uani 1 1 d . . . . .
H16 H 0.543734 -0.510649 0.675073 0.055 Uiso 1 1 calc R U . . .
C17 C 0.56819(18) -0.3371(7) 0.7832(2) 0.0424(7) Uani 1 1 d . . . . .
H17 H 0.537153 -0.430494 0.801917 0.051 Uiso 1 1 calc R U . . .
C18 C 0.61082(17) -0.1475(8) 0.8305(2) 0.0415(7) Uani 1 1 d . . . . .
H18 H 0.608990 -0.109551 0.881418 0.050 Uiso 1 1 calc R U . . .
C19 C 0.65634(16) -0.0164(7) 0.7995(2) 0.0399(7) Uani 1 1 d . . . . .
H19 H 0.684883 0.112179 0.830785 0.048 Uiso 1 1 calc R U . . .
N1 N 0.78193(12) 0.4529(5) 0.62047(13) 0.0254(5) Uani 1 1 d . . . . .
N2 N 0.89461(12) 0.6009(4) 0.64182(13) 0.0241(4) Uani 1 1 d . . . . .
N3 N 0.66147(12) -0.0639(5) 0.72784(15) 0.0332(5) Uani 1 1 d . . . . .
O1 O 0.69143(10) 0.6069(5) 0.52330(12) 0.0355(5) Uani 1 1 d . . . . .
Se1 Se 0.72557(2) 0.22153(6) 0.66162(2) 0.02704(11) Uani 1 1 d . . . . .
 
loop_
 _atom_site_aniso_label
 _atom_site_aniso_U_11
 _atom_site_aniso_U_22
 _atom_site_aniso_U_33
 _atom_site_aniso_U_23
 _atom_site_aniso_U_13
 _atom_site_aniso_U_12
C1 0.0289(13) 0.0231(12) 0.0242(12) -0.0045(10) 0.0125(10) 0.0003(10)
C2 0.0293(13) 0.0188(11) 0.0234(12) -0.0029(9) 0.0117(10) 0.0005(9)
C3 0.0286(13) 0.0221(11) 0.0250(12) -0.0017(10) 0.0121(10) -0.0012(10)
C4 0.0305(14) 0.0265(13) 0.0250(12) -0.0008(10) 0.0092(10) 0.0034(11)
C5 0.0370(15) 0.0238(12) 0.0263(13) 0.0011(10) 0.0146(11) 0.0010(11)
C6 0.0340(15) 0.0233(12) 0.0310(14) -0.0017(10) 0.0182(11) -0.0023(11)
C7 0.0296(13) 0.0209(11) 0.0200(11) -0.0033(9) 0.0107(10) -0.0007(10)
C8 0.0297(14) 0.0282(13) 0.0214(12) 0.0005(10) 0.0090(10) 0.0018(11)
C9 0.0339(14) 0.0241(12) 0.0220(12) -0.0010(10) 0.0114(10) 0.0020(11)
C10 0.0323(14) 0.0212(11) 0.0187(11) -0.0022(9) 0.0103(10) 0.0006(10)
C11 0.0353(15) 0.0243(12) 0.0252(13) -0.0016(10) 0.0123(11) -0.0012(11)
C12 0.0444(17) 0.0223(12) 0.0296(14) 0.0007(11) 0.0176(12) -0.0019(11)
C13 0.0484(18) 0.0286(13) 0.0239(13) 0.0051(11) 0.0157(12) 0.0038(12)
C14 0.0370(16) 0.0304(14) 0.0267(13) 0.0025(11) 0.0108(11) 0.0051(12)
C15 0.0359(16) 0.0413(17) 0.0363(15) -0.0048(13) 0.0167(13) -0.0015(13)
C16 0.0408(19) 0.0465(18) 0.057(2) -0.0124(16) 0.0250(16) -0.0117(15)
C17 0.0387(17) 0.0444(18) 0.052(2) -0.0011(15) 0.0252(15) -0.0027(15)
C18 0.0393(18) 0.056(2) 0.0331(16) 0.0007(15) 0.0171(13) 0.0035(15)
C19 0.0318(16) 0.0484(18) 0.0375(16) -0.0063(14) 0.0073(12) -0.0040(14)
N1 0.0264(11) 0.0243(11) 0.0265(11) -0.0003(9) 0.0095(9) -0.0019(9)
N2 0.0290(12) 0.0219(10) 0.0237(10) -0.0007(8) 0.0113(9) -0.0006(9)
N3 0.0290(13) 0.0366(13) 0.0359(13) 0.0011(11) 0.0129(10) 0.0004(10)
O1 0.0286(11) 0.0438(12) 0.0313(10) 0.0052(9) 0.0047(8) -0.0017(9)
Se1 0.02610(17) 0.02791(16) 0.02857(16) -0.00053(11) 0.01040(11) -0.00186(11)
 
_geom_special_details
;
 All esds (except the esd in the dihedral angle between two l.s. planes)
 are estimated using the full covariance matrix.  The cell esds are taken
 into account individually in the estimation of esds in distances, angles
 and torsion angles; correlations between esds in cell parameters are only
 used when they are defined by crystal symmetry.  An approximate (isotropic)
 treatment of cell esds is used for estimating esds involving l.s. planes.
;
 
loop_
 _geom_bond_atom_site_label_1
 _geom_bond_atom_site_label_2
 _geom_bond_distance
 _geom_bond_site_symmetry_2
 _geom_bond_publ_flag
C1 C2 1.396(4) . ?
C1 C6 1.399(4) . ?
C1 Se1 1.908(3) . ?
C2 C3 1.389(4) . ?
C2 C7 1.462(4) . ?
C3 C4 1.386(4) . ?
C3 H3 0.9300 . ?
C4 C5 1.395(4) . ?
C4 H4 0.9300 . ?
C5 C6 1.387(4) . ?
C5 H5 0.9300 . ?
C6 H6 0.9300 . ?
C7 N2 1.306(3) . ?
C7 N1 1.371(4) . ?
C8 O1 1.238(3) . ?
C8 N1 1.373(4) . ?
C8 C9 1.454(4) . ?
C9 C10 1.405(4) . ?
C9 C14 1.413(4) . ?
C10 N2 1.380(3) . ?
C10 C11 1.412(4) . ?
C11 C12 1.378(4) . ?
C11 H11 0.9300 . ?
C12 C13 1.411(4) . ?
C12 H12 0.9300 . ?
C13 C14 1.371(4) . ?
C13 H13 0.9300 . ?
C14 H14 0.9300 . ?
C15 N3 1.332(4) . ?
C15 C16 1.386(5) . ?
C15 H15 0.9300 . ?
C16 C17 1.375(5) . ?
C16 H16 0.9300 . ?
C17 C18 1.385(5) . ?
C17 H17 0.9300 . ?
C18 C19 1.387(5) . ?
C18 H18 0.9300 . ?
C19 N3 1.322(4) . ?
C19 H19 0.9300 . ?
N1 Se1 1.926(2) . ?
 
loop_
 _geom_angle_atom_site_label_1
 _geom_angle_atom_site_label_2
 _geom_angle_atom_site_label_3
 _geom_angle
 _geom_angle_site_symmetry_1
 _geom_angle_site_symmetry_3
 _geom_angle_publ_flag
C2 C1 C6 120.0(3) . . ?
C2 C1 Se1 113.8(2) . . ?
C6 C1 Se1 126.2(2) . . ?
C3 C2 C1 120.7(2) . . ?
C3 C2 C7 124.1(2) . . ?
C1 C2 C7 115.2(2) . . ?
C4 C3 C2 119.4(2) . . ?
C4 C3 H3 120.3 . . ?
C2 C3 H3 120.3 . . ?
C3 C4 C5 120.0(3) . . ?
C3 C4 H4 120.0 . . ?
C5 C4 H4 120.0 . . ?
C6 C5 C4 121.1(3) . . ?
C6 C5 H5 119.4 . . ?
C4 C5 H5 119.4 . . ?
C5 C6 C1 118.8(3) . . ?
C5 C6 H6 120.6 . . ?
C1 C6 H6 120.6 . . ?
N2 C7 N1 124.5(2) . . ?
N2 C7 C2 124.5(2) . . ?
N1 C7 C2 110.9(2) . . ?
O1 C8 N1 120.2(3) . . ?
O1 C8 C9 126.4(3) . . ?
N1 C8 C9 113.4(2) . . ?
C10 C9 C14 120.3(3) . . ?
C10 C9 C8 119.4(2) . . ?
C14 C9 C8 120.4(3) . . ?
N2 C10 C9 123.1(2) . . ?
N2 C10 C11 118.3(2) . . ?
C9 C10 C11 118.7(2) . . ?
C12 C11 C10 120.4(3) . . ?
C12 C11 H11 119.8 . . ?
C10 C11 H11 119.8 . . ?
C11 C12 C13 120.5(3) . . ?
C11 C12 H12 119.7 . . ?
C13 C12 H12 119.7 . . ?
C14 C13 C12 119.9(3) . . ?
C14 C13 H13 120.1 . . ?
C12 C13 H13 120.1 . . ?
C13 C14 C9 120.2(3) . . ?
C13 C14 H14 119.9 . . ?
C9 C14 H14 119.9 . . ?
N3 C15 C16 122.7(3) . . ?
N3 C15 H15 118.6 . . ?
C16 C15 H15 118.6 . . ?
C17 C16 C15 118.6(3) . . ?
C17 C16 H16 120.7 . . ?
C15 C16 H16 120.7 . . ?
C16 C17 C18 119.3(3) . . ?
C16 C17 H17 120.4 . . ?
C18 C17 H17 120.4 . . ?
C17 C18 C19 117.6(3) . . ?
C17 C18 H18 121.2 . . ?
C19 C18 H18 121.2 . . ?
N3 C19 C18 123.7(3) . . ?
N3 C19 H19 118.1 . . ?
C18 C19 H19 118.1 . . ?
C7 N1 C8 123.7(2) . . ?
C7 N1 Se1 116.60(18) . . ?
C8 N1 Se1 119.67(19) . . ?
C7 N2 C10 115.9(2) . . ?
C19 N3 C15 117.9(3) . . ?
C1 Se1 N1 83.25(11) . . ?
 
loop_
 _geom_torsion_atom_site_label_1
 _geom_torsion_atom_site_label_2
 _geom_torsion_atom_site_label_3
 _geom_torsion_atom_site_label_4
 _geom_torsion
 _geom_torsion_site_symmetry_1
 _geom_torsion_site_symmetry_2
 _geom_torsion_site_symmetry_3
 _geom_torsion_site_symmetry_4
 _geom_torsion_publ_flag
C6 C1 C2 C3 -2.0(4) . . . . ?
Se1 C1 C2 C3 179.08(19) . . . . ?
C6 C1 C2 C7 177.0(2) . . . . ?
Se1 C1 C2 C7 -1.9(3) . . . . ?
C1 C2 C3 C4 0.7(4) . . . . ?
C7 C2 C3 C4 -178.2(2) . . . . ?
C2 C3 C4 C5 0.7(4) . . . . ?
C3 C4 C5 C6 -0.8(4) . . . . ?
C4 C5 C6 C1 -0.6(4) . . . . ?
C2 C1 C6 C5 1.9(4) . . . . ?
Se1 C1 C6 C5 -179.3(2) . . . . ?
C3 C2 C7 N2 -1.6(4) . . . . ?
C1 C2 C7 N2 179.4(2) . . . . ?
C3 C2 C7 N1 177.3(2) . . . . ?
C1 C2 C7 N1 -1.7(3) . . . . ?
O1 C8 C9 C10 -179.9(3) . . . . ?
N1 C8 C9 C10 0.9(4) . . . . ?
O1 C8 C9 C14 1.1(4) . . . . ?
N1 C8 C9 C14 -178.1(2) . . . . ?
C14 C9 C10 N2 -179.9(2) . . . . ?
C8 C9 C10 N2 1.1(4) . . . . ?
C14 C9 C10 C11 0.0(4) . . . . ?
C8 C9 C10 C11 -179.0(2) . . . . ?
N2 C10 C11 C12 -179.3(2) . . . . ?
C9 C10 C11 C12 0.8(4) . . . . ?
C10 C11 C12 C13 -0.9(4) . . . . ?
C11 C12 C13 C14 0.2(4) . . . . ?
C12 C13 C14 C9 0.6(4) . . . . ?
C10 C9 C14 C13 -0.7(4) . . . . ?
C8 C9 C14 C13 178.3(3) . . . . ?
N3 C15 C16 C17 0.0(6) . . . . ?
C15 C16 C17 C18 0.7(6) . . . . ?
C16 C17 C18 C19 -0.5(5) . . . . ?
C17 C18 C19 N3 -0.5(5) . . . . ?
N2 C7 N1 C8 1.7(4) . . . . ?
C2 C7 N1 C8 -177.2(2) . . . . ?
N2 C7 N1 Se1 -176.5(2) . . . . ?
C2 C7 N1 Se1 4.6(3) . . . . ?
O1 C8 N1 C7 178.5(2) . . . . ?
C9 C8 N1 C7 -2.3(4) . . . . ?
O1 C8 N1 Se1 -3.4(3) . . . . ?
C9 C8 N1 Se1 175.86(18) . . . . ?
N1 C7 N2 C10 0.5(4) . . . . ?
C2 C7 N2 C10 179.3(2) . . . . ?
C9 C10 N2 C7 -1.8(4) . . . . ?
C11 C10 N2 C7 178.3(2) . . . . ?
C18 C19 N3 C15 1.2(5) . . . . ?
C16 C15 N3 C19 -0.9(5) . . . . ?
 
_refine_diff_density_max    0.381
_refine_diff_density_min   -0.575
_refine_diff_density_rms    0.077

_shelx_res_file
;
TITL shelxt_a.res in P2(1)/c
    shelx.res
    created by SHELXL-2016/6 at 13:46:21 on 11-Jan-2018
CELL  1.54184  20.7476   4.9407  17.6687   90.000  107.376   90.000
ZERR     4.00   0.0009   0.0002   0.0007    0.000    0.004    0.000
LATT   1
SYMM  - X, 1/2 + Y, 1/2 - Z
SFAC  C    H    N    O    SE
UNIT  76 52 12 4 4
MERG   2
OMIT     2   0   2
ABIN
FMAP   2
PLAN   20
ACTA
BOND   $H
CONF
L.S.  10
WGHT    0.043900    0.547300
FVAR       5.09370
C1    1    0.809985    0.103651    0.731590    11.00000    0.02890    0.02306 =
         0.02421   -0.00449    0.01252    0.00029
C2    1    0.865574    0.243686    0.722230    11.00000    0.02926    0.01880 =
         0.02344   -0.00285    0.01168    0.00047
C3    1    0.930518    0.183962    0.769648    11.00000    0.02859    0.02209 =
         0.02500   -0.00173    0.01207   -0.00123
AFIX  43
H3    2    0.967315    0.279123    0.763531    11.00000   -1.20000
AFIX   0
C4    1    0.939967   -0.018660    0.826136    11.00000    0.03045    0.02652 =
         0.02500   -0.00082    0.00924    0.00340
AFIX  43
H4    2    0.983207   -0.058649    0.858542    11.00000   -1.20000
AFIX   0
C5    1    0.884613   -0.162728    0.834409    11.00000    0.03703    0.02379 =
         0.02628    0.00106    0.01464    0.00097
AFIX  43
H5    2    0.891468   -0.299854    0.872043    11.00000   -1.20000
AFIX   0
C6    1    0.819520   -0.104837    0.787432    11.00000    0.03398    0.02331 =
         0.03098   -0.00174    0.01819   -0.00228
AFIX  43
H6    2    0.782915   -0.202795    0.792963    11.00000   -1.20000
AFIX   0
C7    1    0.849845    0.447537    0.659416    11.00000    0.02960    0.02089 =
         0.01998   -0.00333    0.01073   -0.00066
C8    1    0.753036    0.616842    0.556606    11.00000    0.02973    0.02824 =
         0.02138    0.00053    0.00899    0.00178
C9    1    0.801247    0.793403    0.535863    11.00000    0.03388    0.02414 =
         0.02199   -0.00099    0.01141    0.00196
C10   1    0.869872    0.779292    0.579817    11.00000    0.03235    0.02116 =
         0.01872   -0.00220    0.01031    0.00063
C11   1    0.915868    0.955073    0.559724    11.00000    0.03527    0.02433 =
         0.02523   -0.00155    0.01230   -0.00120
AFIX  43
H11   2    0.961542    0.946865    0.587792    11.00000   -1.20000
AFIX   0
C12   1    0.893526    1.138768    0.498783    11.00000    0.04440    0.02229 =
         0.02963    0.00068    0.01757   -0.00187
AFIX  43
H12   2    0.924164    1.255345    0.486530    11.00000   -1.20000
AFIX   0
C13   1    0.824546    1.151408    0.454831    11.00000    0.04838    0.02858 =
         0.02392    0.00506    0.01572    0.00380
AFIX  43
H13   2    0.809867    1.275460    0.413675    11.00000   -1.20000
AFIX   0
C14   1    0.779202    0.980440    0.472917    11.00000    0.03700    0.03043 =
         0.02670    0.00251    0.01078    0.00514
AFIX  43
H14   2    0.733801    0.987619    0.443662    11.00000   -1.20000
AFIX   0
C15   1    0.619656   -0.244675    0.682634    11.00000    0.03593    0.04130 =
         0.03628   -0.00479    0.01673   -0.00150
AFIX  43
H15   2    0.622412   -0.277621    0.631869    11.00000   -1.20000
AFIX   0
C16   1    0.572235   -0.385705    0.708083    11.00000    0.04084    0.04646 =
         0.05730   -0.01244    0.02505   -0.01173
AFIX  43
H16   2    0.543734   -0.510649    0.675073    11.00000   -1.20000
AFIX   0
C17   1    0.568189   -0.337087    0.783161    11.00000    0.03866    0.04439 =
         0.05178   -0.00115    0.02521   -0.00267
AFIX  43
H17   2    0.537153   -0.430494    0.801917    11.00000   -1.20000
AFIX   0
C18   1    0.610824   -0.147545    0.830550    11.00000    0.03932    0.05623 =
         0.03313    0.00067    0.01709    0.00346
AFIX  43
H18   2    0.608990   -0.109551    0.881418    11.00000   -1.20000
AFIX   0
C19   1    0.656339   -0.016431    0.799471    11.00000    0.03181    0.04839 =
         0.03747   -0.00630    0.00727   -0.00395
AFIX  43
H19   2    0.684883    0.112179    0.830785    11.00000   -1.20000
AFIX   0
N1    3    0.781933    0.452857    0.620465    11.00000    0.02642    0.02431 =
         0.02654   -0.00028    0.00950   -0.00194
N2    3    0.894609    0.600859    0.641818    11.00000    0.02896    0.02193 =
         0.02372   -0.00075    0.01132   -0.00056
N3    3    0.661465   -0.063865    0.727842    11.00000    0.02900    0.03662 =
         0.03595    0.00106    0.01286    0.00042
O1    4    0.691427    0.606894    0.523297    11.00000    0.02857    0.04381 =
         0.03131    0.00525    0.00470   -0.00167
SE1   5    0.725566    0.221527    0.661618    11.00000    0.02610    0.02791 =
         0.02857   -0.00053    0.01040   -0.00186
HKLF    4




REM  shelxt_a.res in P2(1)/c
REM R1 =  0.0346 for    2889 Fo > 4sig(Fo)  and  0.0422 for all    3419 data
REM    217 parameters refined using      0 restraints

END

WGHT      0.0437      0.5590

REM Highest difference peak  0.381,  deepest hole -0.575,  1-sigma level  0.077
Q1    1   0.7448  0.5068  0.6575  11.00000  0.05    0.38
Q2    1   0.7477 -0.0427  0.6698  11.00000  0.05    0.37
Q3    1   0.7337  0.0734  0.6163  11.00000  0.05    0.35
Q4    1   0.7697  0.1971  0.6263  11.00000  0.05    0.35
Q5    1   0.7081 -0.0585  0.6604  11.00000  0.05    0.35
Q6    1   0.7601  0.2549  0.6223  11.00000  0.05    0.33
Q7    1   0.7210  0.3483  0.7110  11.00000  0.05    0.32
Q8    1   0.6821  0.1933  0.6962  11.00000  0.05    0.31
Q9    1   0.7660  0.3071  0.5724  11.00000  0.05    0.29
Q10   1   0.8089  0.6958  0.6991  11.00000  0.05    0.28
Q11   1   0.7915  0.8647  0.5034  11.00000  0.05    0.28
Q12   1   0.8118  0.0197  0.7700  11.00000  0.05    0.27
Q13   1   0.7040  0.4938  0.6593  11.00000  0.05    0.27
Q14   1   0.7625  1.1894  0.5208  11.00000  0.05    0.26
Q15   1   0.7797  1.1898  0.5278  11.00000  0.05    0.26
Q16   1   0.8400 -0.1772  0.7105  11.00000  0.05    0.26
Q17   1   0.7346  0.3543  0.6071  11.00000  0.05    0.26
Q18   1   0.8839  0.5860  0.6661  11.00000  0.05    0.26
Q19   1   0.6440  0.2004  0.7295  11.00000  0.05    0.25
Q20   1   0.7145  0.4212  0.5992  11.00000  0.05    0.24
;
_shelx_res_checksum   71882

_shelx_hkl_file
;
  -2   0   0 751772. 4146.18   3
  -3   0   0 92733.4 1825.33   3
  -4   0   0 31329.3 1277.21   3
  -5   0   0 137278. 2837.88   3
  -6   0   0 219060. 4018.85   3
  -7   0   0 51442.3 2134.49   3
  -8   0   0 24.3040 343.470   3
  -9   0   0 35390.3 2120.52   3
 -10   0   0 10719.3 1286.07   3
 -11   0   0 135776. 4644.93   3
 -12   0   0 31391.1 2420.75   3
 -13   0   0 112628. 4809.68   3
 -14   0   0 21982.6 2308.06   3
 -15   0   0 67351.4 2592.87   8
 -15   0   0 71441.3 4338.27   3
 -16   0   0 11978.6 1165.83   8
 -16   0   0 9960.87 1746.20   3
 -17   0   0 16772.4 1414.13   8
 -17   0   0 17939.0 2408.83   3
 -18   0   0 72977.5 2897.46   8
 -19   0   0 293.848 300.831   8
 -20   0   0 53575.3 2403.23   8
 -21   0   0 4182.36 684.667   8
 -22   0   0 6158.37 746.233   8
 -23   0   0 122.381 238.316   8
 -24   0   0 25464.5 1033.71   8
   0  -1   0-39.1157 239.067   2
  -1  -1   0 48647.5 1426.21   2
  -2  -1   0 36350.4 1314.60   2
  -5  -1   0 159368. 3632.34   3
  -6   1   0 128297. 3683.05   3
  -6  -1   0 133146. 3550.66   3
  -7  -1   0 3101.46 656.969   3
  -7   1   0 3640.37 752.726   3
  -8  -1   0 237464. 5354.88   3
  -8   1   0 234767. 5963.55   3
  -9  -1   0 12213.4 1325.93   3
  -9   1   0 11120.1 1567.41   3
 -10   1   0 313807. 8414.57   3
 -10  -1   0 289554. 6560.03   3
 -11  -1   0 5544.27 1026.72   3
 -11   1   0 6454.33 1280.69   3
 -12  -1   0 82901.4 3970.38   3
 -12   1   0 88005.4 4520.21   3
 -13   1   0 29032.5 2728.32   3
 -13  -1   0 26826.1 2464.79   3
 -14  -1   0 69489.4 2593.02   8
 -14   1   0 70605.3 4369.41   3
 -14  -1   0 68480.8 4009.59   3
 -15  -1   0 82644.8 2961.10   8
 -15  -1   0 79278.8 4527.69   3
 -16  -1   0 45397.6 2262.09   8
 -16  -1   0 45805.4 3665.06   3
 -17  -1   0 68950.2 2848.37   8
 -18  -1   0 840.031 471.657   8
 -19  -1   0 33685.1 1990.87   8
 -20  -1   0 1986.03 549.129   8
 -21  -1   0 54447.7 2368.53   8
 -22  -1   0 2126.67 537.402   8
 -23  -1   0 34769.9 1562.58   8
 -24  -1   0 7210.61 614.341   8
   0  -2   0 131728. 3455.13   2
  -1  -2   0 6466.21 733.633   2
   1  -2   0 7610.40 945.051   2
   2  -2   0 61588.0 2675.04   2
  -2  -2   0 71540.4 2418.76   2
  -3  -2   0 216.528 275.253   2
  -3  -2   0-143.652 402.329   3
  -4  -2   0 38520.8 2257.06   3
  -5  -2   0 93479.1 3586.57   3
  -6  -2   0 56635.5 2880.15   3
  -7  -2   0 271813. 6557.54   3
  -8  -2   0 83750.1 3782.67   3
  -9  -2   0 208950. 6151.11   3
 -10  -2   0 3314.27 924.698   3
 -11  -2   0 106768. 4801.85   3
 -12  -2   0 48251.0 3384.27   3
 -13  -2   0 78581.0 2805.52   8
 -13  -2   0 77316.0 4400.67   3
 -14  -2   0 7891.76 1456.91   3
 -14  -2   0 8678.32 1005.74   8
 -15  -2   0 53179.7 2477.82   8
 -16  -2   0 1580.97 497.847   8
 -17  -2   0 12655.3 1267.03   8
 -18  -2   0 15269.6 1346.27   8
 -19  -2   0 396.066 406.959   8
 -20  -2   0 51762.1 2256.72   8
 -21  -2   0 599.147 328.972   8
 -22  -2   0 18350.5 1147.03   8
 -23  -2   0 4088.28 483.302   8
  -1  -3   0 145909. 5158.38   3
  -2  -3   0 20520.8 1970.00   3
  -3  -3   0 34327.1 2605.19   3
  -4  -3   0 153657. 5568.39   3
  -5  -3   0 79837.2 4054.34   3
  -6  -3   0 120586. 5101.95   3
  -7  -3   0 13445.3 1756.86   3
  -8  -3   0 42573.8 3227.52   3
  -9  -3   0-14.4942 337.136   5
  -9  -3   0 214.617 415.289   6
  -9  -3   0 296.885 438.472   3
 -10  -3   0 42383.6 2096.33   6
 -10  -3   0 38688.4 1919.35   5
 -10  -3   0 36942.0 3144.61   3
 -11  -3   0 9590.76 1696.28   3
 -11  -3   0 8837.61 948.480   5
 -12  -3   0 60075.6 2361.68   5
 -12  -3   0 58296.6 4130.43   3
 -13  -3   0-3.33091 408.948   5
 -13  -3   0 198.578 351.763   8
 -14  -3   0 21487.4 1353.51   5
 -14  -3   0 21310.9 1507.60   8
 -15  -3   0 12133.4 1014.86   5
 -15  -3   0 12816.2 1186.93   8
 -16  -3   0 4357.69 700.139   8
 -16  -3   0 3510.78 533.625   5
 -17  -3   0 16509.0 1283.40   8
 -18  -3   0 231.135 297.390   8
 -19  -3   0 16990.6 1144.10   8
 -20  -3   0-245.215 240.543   8
 -21  -3   0 13502.7 770.852   8
   0  -4   0 19451.6 1527.43   6
  -1  -4   0-67.1207 299.058   5
  -1  -4   0-530.985 511.161   6
   1  -4   0 576.153 488.900   6
   2  -4   0 29681.6 1874.09   6
  -2  -4   0 29754.2 1878.61   6
  -2  -4   0 27884.7 1628.86   5
  -2  -4   0 26292.1 2641.76   3
   3  -4   0 14811.4 1427.70   6
  -3  -4   0 14647.9 1339.56   6
  -3  -4   0 13448.6 1935.49   3
  -3  -4   0 15012.1 1238.37   5
  -4  -4   0 31968.3 1937.39   6
  -4  -4   0 30036.2 2867.66   3
   4  -4   0 30958.9 1971.34   6
  -4  -4   0 32818.0 1833.61   5
  -5  -4   0 18383.1 1518.17   6
  -5  -4   0 16034.7 2095.83   3
  -5  -4   0 16839.2 1344.44   5
   5  -4   0 15957.3 1436.18   6
  -6  -4   0 8125.06 990.032   5
   6  -4   0 6981.18 1008.82   6
  -6  -4   0 7422.86 1040.79   6
  -7  -4   0 9783.09 1043.34   5
  -7  -4   0 9729.24 1162.65   6
   7  -4   0 8328.65 1093.45   6
  -8  -4   0 13527.6 1351.80   6
  -8  -4   0 12377.4 1176.88   5
   8  -4   0 11906.6 1244.95   6
  -9  -4   0 33346.1 1872.67   5
   9  -4   0 31204.3 1993.28   6
  -9  -4   0 31077.7 1959.21   6
  10  -4   0 11754.1 1225.16   6
 -10  -4   0 13313.7 1312.06   6
 -10  -4   0 12329.4 1159.49   5
 -11  -4   0 5908.82 826.207   5
  11  -4   0 5046.49 806.926   6
 -12  -4   0 16077.1 1219.91   5
  12  -4   0 16059.2 1381.08   6
 -13  -4   0 5212.16 724.625   5
  13  -4   0 4770.52 727.711   6
 -14  -4   0 53175.2 1918.96   5
 -15  -4   0 33061.2 1386.76   5
 -16  -4   0 19757.6 964.992   5
 -17  -4   0 6382.05 477.094   5
   0  -5   0 50.0181 446.715   6
   1  -5   0 13666.8 1290.37   6
  -1  -5   0 13563.9 1290.93   6
   2  -5   0 1054.72 569.064   6
  -2  -5   0 1833.35 642.119   6
  -2  -5   0 1264.75 392.816   5
  -3  -5   0 20083.3 1244.12   5
   3  -5   0 18558.7 1468.65   6
  -3  -5   0 20588.1 1546.43   6
  -4  -5   0 404.061 513.450   6
  -4  -5   0 544.641 379.827   5
   4  -5   0-829.588 608.385   6
  -5  -5   0 6665.61 774.462   5
  -5  -5   0 7029.52 950.882   6
   5  -5   0 5354.85 820.130   6
  -6  -5   0 22619.1 1368.75   5
  -6  -5   0 22973.7 1546.59   6
   6  -5   0 20966.8 1456.38   6
  -7  -5   0 5228.28 895.642   6
  -7  -5   0 5100.00 694.077   5
   7  -5   0 4282.23 681.726   6
   8  -5   0 24565.8 1474.19   6
  -8  -5   0 26797.0 1445.34   5
   9  -5   0 2733.99 517.064   6
  -9  -5   0 3253.37 534.255   5
 -10  -5   0 696.352 328.023   5
  10  -5   0 585.114 284.841   6
 -11  -5   0 642.863 339.138   5
  11  -5   0 249.418 242.533   6
 -12  -5   0 3374.19 466.559   5
 -13  -5   0 5123.41 487.065   5
 -14  -5   0 2170.56 289.672   5
   0  -6   0 5194.93 533.533   6
  -1  -6   0 740.051 308.831   6
   1  -6   0 170.509 245.759   6
  -2  -6   0 8362.23 658.740   6
   2  -6   0 7374.35 599.815   6
   3  -6   0 258.255 242.898   6
 -24   0   1 218.916 206.185   8
 -23   0   1-95.6703 252.092   8
 -22   0   1-15.3549 279.261   8
 -21   0   1-429.027 360.687   8
 -20   0   1 87.6678 320.745   8
 -19   0   1 239.974 329.303   8
 -18   0   1 340.458 384.259   8
 -17   0   1-324.140 390.810   8
 -16   0   1-10.2778 324.706   8
 -16   0   1-391.976 456.387   3
 -15   0   1 95.1007 478.828   3
 -14   0   1-352.127 405.951   3
 -13   0   1 2.37102 348.748   3
 -12   0   1 139.778 335.483   3
 -11   0   1 259.104 350.451   3
 -10   0   1-16.3002 347.159   3
  -9   0   1 151.097 312.555   3
  -8   0   1 101.482 325.826   3
  -7   0   1 41.6755 284.955   3
  -6   0   1 165.627 318.928   3
  -5   0   1 75.8472 267.156   3
  -4   0   1 107.213 228.975   3
  -3   0   1 69.6920 157.023   3
  -2   0   1 23.8258 89.1533   3
  -6   0  -1 41.9216 337.716   3
  -7   0  -1-107.356 358.683   3
  -8   0  -1-31.4727 395.827   3
  -9   0  -1 337.565 491.916   3
 -10   0  -1-65.2236 386.713   3
 -11   0  -1 126.512 399.021   3
 -12   0  -1-85.0848 407.527   3
 -13   0  -1 97.0610 427.051   3
 -14   0  -1-487.793 545.169   3
 -15   0  -1-272.808 598.489   3
 -15   0  -1 282.578 305.382   8
 -16   0  -1 477.871 419.091   3
 -16   0  -1 696.403 423.509   8
 -17   0  -1-129.672 351.181   8
 -18   0  -1 81.6502 340.337   8
 -19   0  -1-253.402 401.455   8
 -20   0  -1 366.105 383.922   8
 -21   0  -1-265.310 310.862   8
 -22   0  -1 176.547 286.898   8
 -23   0  -1-242.404 248.311   8
 -24  -1   1 149.765 210.740   8
 -23  -1   1 90.0417 258.257   8
 -22  -1   1 1398.17 438.043   8
 -21  -1   1 1078.43 442.732   8
 -20  -1   1 239.142 402.860   8
 -19  -1   1 9124.68 1069.57   8
 -18  -1   1 6442.71 922.419   8
 -17  -1   1 438.678 354.365   8
 -16  -1   1 19842.9 2348.01   3
 -16  -1   1 21944.7 1569.95   8
 -15  -1   1 5129.76 1144.29   3
 -15  -1   1 5500.95 783.689   8
 -14  -1   1 51428.3 3400.82   3
 -13  -1   1 13057.2 1652.72   3
 -13   1   1 12755.6 1774.99   3
 -12   1   1 9951.75 1491.30   3
 -12  -1   1 8784.09 1298.01   3
 -11  -1   1 45121.3 2735.65   3
 -11   1   1 46145.2 3076.76   3
 -10  -1   1 69090.4 3159.32   3
 -10   1   1 69333.0 3989.15   3
  -9   1   1 340.058 603.637   3
  -9  -1   1 609.953 411.403   3
  -8  -1   1 1203.15 491.941   3
  -8   1   1 779.891 448.878   3
  -7  -1   1 42106.5 2115.99   3
  -7   1   1 40499.6 2082.19   3
  -6   1   1 92988.5 2829.78   3
  -6  -1   1 92756.9 2938.43   3
  -5  -1   1 46643.3 2006.69   3
   2   1  -1 24559.3 923.389   1
   2  -1  -1 25164.3 927.601   1
  -1  -1   1 58090.1 1067.74   2
   1  -1  -1 49158.3 1846.51   2
   0  -1   1 298.328 186.958   2
   0  -1  -1 485.412 342.621   2
  -1  -1  -1 47032.9 1534.41   3
  -1  -1  -1 48122.0 1751.04   2
  -2  -1  -1 3130.06 502.364   2
  -2  -1  -1 3064.58 491.423   3
  -3  -1  -1 20466.5 1192.78   3
  -3  -1  -1 20313.2 1292.83   2
  -4  -1  -1 143180. 3332.40   3
  -5   1  -1 8711.81 1056.87   3
  -5  -1  -1 10174.5 991.323   3
  -6   1  -1 9682.88 1166.01   3
  -6  -1  -1 11100.6 1082.37   3
  -7  -1  -1 14050.8 1299.77   3
  -7   1  -1 13054.0 1431.98   3
  -8   1  -1 522.484 597.446   3
  -8  -1  -1 639.941 518.699   3
  -9  -1  -1 3166.22 781.596   3
  -9   1  -1 2542.09 859.020   3
 -10   1  -1 39170.1 3054.24   3
 -10  -1  -1 35106.9 2380.27   3
 -11   1  -1 12490.5 1800.16   3
 -11  -1  -1 12308.0 1561.61   3
 -12  -1  -1 8121.02 1313.58   3
 -12   1  -1 8035.33 1514.42   3
 -13   1  -1 1168.34 629.895   3
 -13  -1  -1 1280.84 623.832   3
 -14  -1  -1 22595.0 2417.19   3
 -14   1  -1 24445.2 2723.13   3
 -14  -1  -1 23859.8 1573.39   8
 -15  -1  -1-280.287 354.969   8
 -15  -1  -1 117.538 558.470   3
 -16  -1  -1 563.831 592.371   3
 -16   1  -1 274.136 306.392   8
 -16  -1  -1 450.690 376.642   8
 -17   1  -1 4236.11 730.494   8
 -17  -1  -1 4682.50 821.464   8
 -18  -1  -1 23478.1 1693.57   8
 -18   1  -1 20970.5 1508.77   8
 -19  -1  -1-11.8032 366.733   8
 -20  -1  -1 11588.1 1160.66   8
 -21  -1  -1 52.8653 330.297   8
 -22  -1  -1 1944.58 466.960   8
 -23  -1  -1 976.699 313.676   8
 -24  -1  -1 39.8726 153.668   8
 -23  -2   1 73.9087 199.841   8
 -22  -2   1 1818.65 441.462   8
 -21  -2   1 1255.77 444.212   8
 -20  -2   1 646.305 399.254   8
 -19  -2   1 11275.1 1148.19   8
 -18  -2   1-2.87786 405.641   8
 -17  -2   1 3758.60 726.749   8
 -16  -2   1 2544.60 630.891   8
 -15  -2   1 12586.2 1224.88   8
 -15  -2   1 12386.6 1893.93   3
 -14  -2   1 5984.99 833.270   8
 -14  -2   1 7185.51 1439.03   3
 -13  -2   1 218.136 309.314   8
 -13  -2   1-95.5560 378.465   3
 -12  -2   1 8245.62 1407.39   3
 -11  -2   1 42470.2 3019.42   3
 -10  -2   1 3466.49 902.483   3
  -9  -2   1 5741.45 1091.66   3
  -8  -2   1 2007.04 710.824   3
  -7  -2   1 2894.14 789.741   3
  -6  -2   1 222989. 5753.05   3
   6  -2  -1 212412. 4701.63   1
   6   2  -1 212124. 4781.20   1
   5  -2  -1 25055.0 1389.61   1
  -5  -2   1 25616.8 1933.29   3
   5   2  -1 25132.9 1455.76   1
  -4  -2   1 126774. 4070.60   3
   3  -2  -1 249.433 386.656   2
  -2  -2   1 2866.30 437.288   2
   2  -2  -1 3686.62 746.336   2
   1  -2  -1 48798.3 2436.18   2
  -1  -2   1 48131.5 1554.46   2
   0  -2   1 12272.2 893.542   2
   0  -2  -1 11250.1 1165.74   2
  -1  -2  -1 139900. 3759.25   3
   1  -2   1 137014. 3272.52   2
  -1  -2  -1 140841. 3797.83   2
  -2  -2  -1 2583.49 582.592   3
  -2  -2  -1 2355.41 595.186   2
   2  -2   1 2366.44 566.150   2
  -3  -2  -1 564.937 352.131   2
  -3  -2  -1 241.956 379.711   3
  -4  -2  -1 7692.90 1041.10   2
  -4  -2  -1 8062.68 1078.38   3
  -5  -2  -1 21612.7 1726.43   3
  -6  -2  -1 8343.91 1158.76   3
  -7  -2  -1 75294.1 3461.30   3
  -8  -2  -1 30673.4 2311.64   3
  -9  -2  -1 805.680 507.949   3
 -10  -2  -1 8672.77 1412.67   3
 -11  -2  -1 2280.36 880.181   3
 -12  -2  -1 5364.14 759.587   8
 -12  -2  -1 5673.09 1236.89   3
 -13  -2  -1 52945.0 3695.25   3
 -13  -2  -1 52776.8 2355.21   8
 -14  -2  -1 7434.60 941.376   8
 -14  -2  -1 7876.27 1503.79   3
 -15  -2  -1 13495.4 1287.55   8
 -16  -2  -1 6484.31 940.091   8
 -17  -2  -1-169.633 371.415   8
 -18  -2  -1 322.284 390.154   8
 -19  -2  -1 747.329 423.986   8
 -20  -2  -1 5548.24 764.621   8
 -21  -2  -1 69.4462 278.359   8
 -22  -2  -1 324.598 262.234   8
 -23  -2  -1 5074.93 488.659   8
 -21  -3   1 9281.50 702.338   8
 -20  -3   1 4176.41 555.328   8
 -19  -3   1 2905.67 543.699   8
 -18  -3   1 4544.66 660.440   8
 -17  -3   1 3198.35 609.248   8
 -16  -3   1 23410.3 1284.58   5
 -16  -3   1 23912.9 1577.86   8
 -15  -3   1 704.917 335.942   5
 -15  -3   1 1415.07 438.926   8
 -14  -3   1 13767.9 1129.37   5
 -14  -3   1 12611.6 1160.95   8
 -13  -3   1 3707.33 672.267   5
 -13  -3   1 2976.37 579.769   8
 -12  -3   1 6820.12 872.585   5
 -12  -3   1 8189.94 1548.71   3
 -12  -3   1 6387.24 820.514   8
 -11  -3   1-22.9025 510.332   3
 -11  -3   1 618.637 407.889   5
 -10  -3   1 28543.4 1718.12   6
 -10  -3   1 26069.0 1606.37   5
 -10  -3   1 25515.7 2626.38   3
  -9  -3   1 25902.2 1613.32   6
  -9  -3   1 22739.5 1490.48   5
  -9  -3   1 22626.4 2438.37   3
  -8  -3   1 16743.4 2060.52   3
  -7  -3   1 42022.5 3121.29   3
  -6  -3   1 17403.0 2008.22   3
  -5  -3   1 5838.80 1173.41   3
  -4  -3   1 18.4619 391.361   3
  -3  -3   1 14735.0 1740.50   3
  -2  -3   1 28075.2 2389.38   3
   1  -3  -1 30206.0 2213.54   3
   0  -3  -1 18132.5 1741.59   3
  -1  -3  -1 53493.3 3017.63   3
  -2  -3  -1 338.724 439.098   3
  -3  -3  -1 56323.6 3242.76   3
  -4  -3  -1 2045.23 731.464   3
  -5  -3  -1 1421.95 558.959   3
  -6  -3  -1 1318.02 600.188   3
  -7  -3  -1 2803.89 789.712   3
  -8  -3  -1 22758.5 1445.31   5
  -8  -3  -1 24585.0 1565.67   6
  -8  -3  -1 22681.6 2380.15   3
  -9  -3  -1 7530.44 919.371   6
  -9  -3  -1 7632.12 877.337   5
  -9  -3  -1 7112.07 1393.69   3
 -10  -3  -1 29332.5 1747.54   6
 -10  -3  -1 27939.0 1627.89   5
 -10  -3  -1 29055.8 2847.00   3
 -11  -3  -1 43883.9 2024.83   5
 -11  -3  -1 44587.9 3545.41   3
 -12  -3  -1-60.4019 328.216   5
 -13  -3  -1 25744.2 1494.95   5
 -13  -3  -1 26194.5 1666.77   8
 -14  -3  -1 2130.13 537.225   8
 -14  -3  -1 1937.15 463.540   5
 -15  -3  -1 14271.9 1241.39   8
 -15  -3  -1 12691.4 971.773   5
 -16  -3  -1 3047.93 602.319   8
 -16  -3  -1 2718.74 479.829   5
 -17  -3  -1 4780.31 715.407   8
 -18  -3  -1 1415.52 397.788   8
 -19  -3  -1 9928.23 851.902   8
 -20  -3  -1-156.583 206.549   8
 -17  -4   1 21687.0 894.813   5
 -16  -4   1 4123.00 502.303   5
 -15  -4   1 34417.6 1465.86   5
  15  -4  -1 41298.6 1843.48   6
 -14  -4   1 15978.8 1110.69   5
  14  -4  -1 17948.2 1380.33   6
  13  -4  -1 4368.63 775.801   6
 -13  -4   1 4840.26 684.519   5
 -12  -4   1 7205.01 874.725   5
  12  -4  -1 6733.95 992.629   6
 -11  -4   1 7795.06 963.481   5
  11  -4  -1 7859.10 1056.16   6
 -10  -4   1 34974.0 2052.10   6
 -10  -4   1 33790.2 1885.59   5
  10  -4  -1 30071.7 2059.62   6
   9  -4  -1 10476.2 1245.27   6
  -9  -4   1 10747.6 1183.46   6
  -9  -4   1 10482.0 1099.14   5
   8  -4  -1 494.605 419.007   6
  -8  -4   1 827.946 459.355   5
  -8  -4   1 1177.89 590.821   6
  -7  -4   1-536.521 546.416   5
   7  -4  -1-437.234 556.678   6
  -7  -4   1 163.392 405.768   6
   6  -4  -1 14268.0 1390.46   6
  -6  -4   1 16333.6 2235.78   3
  -6  -4   1 15547.7 1316.04   5
  -6  -4   1 15665.4 1445.68   6
  -5  -4   1 1765.61 679.011   6
   5  -4  -1 880.426 505.584   6
  -5  -4   1 1207.19 654.426   3
  -5  -4   1 599.113 408.540   5
   4  -4  -1 27004.9 1866.06   6
  -4  -4   1 29295.6 1741.31   5
  -4  -4   1 25348.2 2742.77   3
  -4  -4   1 27770.2 1805.37   6
   3  -4  -1 61.2852 418.979   6
  -3  -4   1-47.1069 407.872   5
  -3  -4   1-233.492 467.391   6
  -3  -4   1 1079.11 804.439   3
  -2  -4   1 17653.1 1454.32   6
   2  -4  -1 18253.3 1517.52   6
  -2  -4   1 16560.3 2143.45   3
  -2  -4   1 17089.8 1320.21   5
  -1  -4   1 8531.17 910.967   5
   1  -4  -1 11619.9 1243.76   6
  -1  -4   1 9581.16 1653.38   3
  -1  -4   1 8585.34 1045.62   6
   0  -4   1 55742.8 2501.82   6
   0  -4   1 48932.7 3619.33   3
   0  -4  -1 57354.7 2597.43   6
  -1  -4  -1 15429.7 1381.08   6
   1  -4   1 17892.8 1500.46   6
  -1  -4  -1 14930.1 1158.14   5
  -2  -4  -1 23015.4 1458.98   5
  -2  -4  -1 21650.7 1637.87   6
   2  -4   1 21814.8 1626.31   6
  -3  -4  -1 33516.6 1991.08   6
  -3  -4  -1 32771.7 1781.32   5
   3  -4   1 34206.8 2001.25   6
  -4  -4  -1 7646.06 917.515   5
  -4  -4  -1 6415.73 968.822   6
   4  -4   1 6678.17 921.491   6
  -5  -4  -1 32263.5 1819.22   5
  -5  -4  -1 28872.7 1893.78   6
   5  -4   1 28879.2 1872.35   6
   6  -4   1-91.7964 394.015   6
  -6  -4  -1 80.0991 376.451   5
  -6  -4  -1 425.010 487.548   6
   7  -4   1 17276.4 1464.88   6
  -7  -4  -1 19008.3 1542.17   6
  -7  -4  -1 18847.4 1439.01   5
  -8  -4  -1 6643.21 904.805   5
   8  -4   1 6043.64 927.242   6
  -8  -4  -1 6265.86 972.673   6
  -9  -4  -1 28398.7 1807.65   6
   9  -4   1 26023.6 1735.54   6
  -9  -4  -1 27940.3 1697.21   5
  10  -4   1 57.0635 336.796   6
 -10  -4  -1 25.0058 379.180   5
 -11  -4  -1 12533.1 1126.50   5
  11  -4   1 13815.7 1224.00   6
 -12  -4  -1-331.996 378.364   5
 -13  -4  -1 1302.54 436.966   5
 -14  -4  -1 16713.5 1045.69   5
 -15  -4  -1 54.7802 249.866   5
 -16  -4  -1 11749.8 720.418   5
 -17  -4  -1 901.401 216.183   5
 -14  -5   1 9233.91 562.089   5
 -13  -5   1 228.119 232.594   5
  12  -5  -1 6982.40 635.296   6
 -12  -5   1 6566.78 614.421   5
 -11  -5   1 3248.69 497.393   5
  11  -5  -1 3052.12 540.108   6
  10  -5  -1 10677.6 984.894   6
 -10  -5   1 11368.6 910.458   5
  -9  -5   1 5181.84 696.357   5
   9  -5  -1 5831.89 796.936   6
   8  -5  -1 4611.96 734.489   6
  -8  -5   1 3973.33 624.684   5
  -7  -5   1 41779.0 1992.14   6
  -7  -5   1 41056.3 1848.58   5
   7  -5  -1 40482.8 2009.79   6
  -6  -5   1 6850.21 964.005   6
  -6  -5   1 6239.92 782.504   5
   6  -5  -1 6164.41 860.981   6
  -5  -5   1 30790.0 1621.89   5
  -5  -5   1 31758.3 1853.56   6
   5  -5  -1 31324.9 1832.41   6
  -4  -5   1 5361.54 877.211   6
  -4  -5   1 4793.20 684.733   5
   4  -5  -1 3654.72 703.257   6
  -3  -5   1 970.205 355.181   5
  -3  -5   1 1007.19 579.442   6
   3  -5  -1 803.533 468.271   6
  -2  -5   1 16730.9 1384.44   6
  -2  -5   1 14129.8 1051.93   5
   2  -5  -1 17070.5 1456.97   6
  -1  -5   1 21806.5 1591.68   6
   1  -5  -1 22172.7 1672.81   6
   0  -5   1 27581.7 1751.89   6
   0  -5  -1 27215.5 1794.49   6
   1  -5   1 26117.1 1675.24   6
  -1  -5  -1 24188.5 1687.94   6
   2  -5   1 25557.3 1641.05   6
  -2  -5  -1 19602.3 1207.58   5
  -2  -5  -1 23716.2 1680.49   6
   3  -5   1 1388.46 562.975   6
  -3  -5  -1 1565.72 663.059   6
  -3  -5  -1 1625.91 494.927   5
  -4  -5  -1 53892.4 2425.23   6
   4  -5   1 50490.9 2197.89   6
  -4  -5  -1 48709.4 1943.48   5
  -5  -5  -1 4917.16 682.427   5
  -5  -5  -1 4236.14 850.086   6
   5  -5   1 4180.56 672.509   6
   6  -5   1 29623.4 1640.15   6
  -6  -5  -1 32158.4 1795.26   6
  -6  -5  -1 31297.9 1559.10   5
  -7  -5  -1 2352.36 670.209   6
   7  -5   1 1692.51 467.153   6
  -7  -5  -1 1563.24 451.624   5
  -8  -5  -1 13357.7 996.391   5
   8  -5   1 12453.8 980.977   6
  -9  -5  -1 134.490 319.323   5
   9  -5   1-517.769 362.676   6
 -10  -5  -1 2971.83 467.561   5
 -11  -5  -1 1082.95 330.733   5
 -12  -5  -1 1452.10 329.393   5
 -13  -5  -1 10047.0 621.601   5
 -14  -5  -1 2748.91 296.683   5
   4  -6  -1 16728.8 866.059   6
   3  -6  -1 1227.49 399.096   6
   2  -6  -1 21967.9 1061.29   6
  -1  -6   1 5335.99 559.109   6
   1  -6  -1 4273.72 519.233   6
   0  -6   1 1623.96 361.122   6
   0  -6  -1 1378.90 356.403   6
   1  -6   1 590.901 284.719   6
  -1  -6  -1 554.223 297.184   6
  -2  -6  -1 437.011 321.605   6
   2  -6   1 446.788 227.170   6
 -24   0   2 20598.8 1045.92   8
 -23   0   2 4922.08 617.193   8
 -22   0   2 7938.15 873.012   8
 -21   0   2 10654.0 1039.18   8
 -20   0   2 20940.4 1514.94   8
 -19   0   2 4789.76 769.937   8
 -18   0   2-240.142 365.617   8
 -17   0   2 46749.3 2244.08   8
 -16   0   2 23647.8 1532.32   8
 -16   0   2 23018.7 2417.90   3
 -15   0   2 240401. 7245.77   3
 -14   0   2 953.113 571.551   3
 -13   0   2 279952. 6897.53   3
 -12   0   2 125080. 4345.42   3
 -11   0   2 84495.3 3304.58   3
 -10   0   2 244341. 5195.64   3
  -9   0   2 18908.5 1373.01   3
  -8   0   2 77119.1 2511.51   3
  -7   0   2 27572.5 1383.97   3
  -6   0   2 354302. 4424.30   3
  -5   0   2 133554. 2401.57   3
  -4   0   2 2343.53 331.209   3
  -3   0   2 50640.2 1121.15   3
   3   0  -2 51048.6 1684.62   1
   2   0  -2 619.020 222.781   1
   1   0  -2 715661. 5160.84   2
   0   0  -2 137500. 2310.56   2
   0   0  -2 135560. 1953.05   3
  -1   0  -2 736074. 5168.34   3
  -1   0  -2 737701. 5753.14   2
  -2   0  -2 28184.7 1315.42   2
  -6   0  -2 227613. 4753.62   3
  -7   0  -2 325298. 6168.48   3
  -8   0  -2 84137.6 3379.22   3
  -9   0  -2 153846. 4886.35   3
 -10   0  -2 105.415 416.798   3
 -11   0  -2 6212.83 1223.58   3
 -12   0  -2 47772.9 3269.45   3
 -13   0  -2 17474.4 2197.05   3
 -14   0  -2 114479. 3415.01   8
 -14   0  -2 121912. 5882.19   3
 -15   0  -2 2651.73 944.764   3
 -15   0  -2 1690.61 517.168   8
 -16   0  -2 57203.1 2582.81   8
 -16   0  -2 57013.2 4379.79   3
 -17   0  -2 16114.8 1416.90   8
 -18   0  -2 91806.8 3312.89   8
 -19   0  -2 26533.2 1761.89   8
 -20   0  -2 12509.4 1186.95   8
 -21   0  -2 65943.6 2445.43   8
 -22   0  -2 589.411 312.936   8
 -23   0  -2 23284.0 1093.26   8
 -24  -1   2 3497.73 489.442   8
 -23  -1   2 20160.4 1258.55   8
 -22  -1   2 26904.1 1582.19   8
 -21  -1   2 9502.24 1063.50   8
 -20  -1   2 39210.2 2113.60   8
 -19  -1   2 2119.42 580.517   8
 -18  -1   2 59522.5 2621.46   8
 -17  -1   2 21345.6 2450.27   3
 -17  -1   2 22282.1 1593.34   8
  17  -1  -2 19728.3 2964.35   1
 -16  -1   2 170457. 6543.10   3
 -16  -1   2 169869. 4257.92   8
 -15  -1   2 6137.28 1211.26   3
 -15  -1   2 7001.53 853.161   8
 -14  -1   2 134626. 5321.69   3
 -13  -1   2 17506.1 1826.19   3
 -12  -1   2 7758.67 1200.16   3
 -12   1   2 6985.79 1172.54   3
 -11   1   2 65406.1 3388.34   3
 -11  -1   2 60388.6 3077.26   3
 -10  -1   2 17897.9 1625.10   3
 -10   1   2 17195.8 1790.66   3
  -9  -1   2 197634. 4996.31   3
  -9   1   2 223265. 5734.65   3
  -8   1   2 326.349 341.962   3
  -8  -1   2 443.453 363.049   3
  -7  -1   2 164462. 4098.02   3
  -7   1   2 165244. 3730.10   3
  -6  -1   2 518.419 367.074   3
  -5  -1   2 247545. 4556.37   3
   4   1  -2 15017.9 1083.97   1
   4  -1  -2 14330.8 1051.28   1
   3  -1  -2 432659. 4963.79   1
   3   1  -2 436628. 4967.13   1
   2   1  -2 370791. 3873.30   1
   2  -1  -2 369923. 3827.63   1
   1  -1  -2 174505. 2361.72   3
   1  -1  -2 170332. 3773.84   2
   0  -1  -2 172159. 3831.12   2
   0  -1  -2 178978. 2680.73   3
  -1  -1  -2 18897.1 966.876   3
  -1  -1  -2 16390.9 1210.30   2
  -2  -1  -2 28600.2 1305.80   3
  -2  -1  -2 26823.9 1522.45   2
  -3  -1  -2 144912. 3665.20   2
  -3  -1  -2 146569. 3158.97   3
  -4  -1  -2 606331. 6909.69   3
  -4  -1  -2 600661. 8105.90   2
  -5   1  -2 8236.89 1103.12   3
  -5  -1  -2 9380.62 1001.10   3
  -6   1  -2 175606. 4995.13   3
  -6  -1  -2 190947. 4472.09   3
  -7   1  -2 144428. 4877.36   3
  -7  -1  -2 158191. 4350.56   3
  -8  -1  -2 104104. 3771.01   3
  -8   1  -2 99775.8 4325.24   3
  -9   1  -2 87941.7 4376.56   3
  -9  -1  -2 87587.3 3702.18   3
 -10  -1  -2 24219.8 2065.42   3
 -10   1  -2 26053.8 2579.29   3
 -11   1  -2 107688. 5365.84   3
 -11  -1  -2 100236. 4391.02   3
 -12  -1  -2 9883.02 1520.23   3
 -12   1  -2 8977.20 1662.55   3
 -13   1  -2 147156. 6689.17   3
 -13  -1  -2 156288. 6170.98   3
 -14   1  -2 287.647 658.616   3
 -14  -1  -2 381.611 686.234   3
 -14  -1  -2 112.731 331.727   8
 -15   1  -2 97082.0 3269.79   8
 -15  -1  -2 103799. 3436.43   8
 -15  -1  -2 103841. 5592.13   3
 -16   1  -2 4618.82 755.443   8
 -16  -1  -2 5155.66 873.066   8
 -17   1  -2 3821.18 704.839   8
 -17  -1  -2 4230.56 783.025   8
 -18   1  -2 36849.7 2008.41   8
 -18  -1  -2 41158.8 2263.02   8
 -19  -1  -2 1396.55 520.831   8
 -19   1  -2 1846.72 485.101   8
 -20  -1  -2 24472.5 1648.69   8
 -21  -1  -2 5984.20 793.616   8
 -22  -1  -2 18273.1 1189.95   8
 -23  -1  -2 1195.17 318.755   8
 -24  -2   2 7765.68 582.953   8
 -23  -2   2 18369.5 1073.40   8
 -22  -2   2 18735.0 1221.65   8
 -21  -2   2 32920.6 1722.98   8
 -20  -2   2 23605.9 1567.23   8
 -19  -2   2 40850.9 2124.66   8
 -18  -2   2 5117.77 836.994   8
 -17  -2   2 59688.5 2628.43   8
 -16  -2   2 13869.3 1277.66   8
 -15  -2   2 10391.2 1095.21   8
 -15  -2   2 10189.2 1684.93   3
 -14  -2   2 22387.3 1517.18   8
 -14  -2   2 20282.2 2327.31   3
 -13  -2   2 29805.4 1685.36   8
  13   2  -2 26919.6 2872.22   1
 -13  -2   2 31002.3 2762.21   3
  12   2  -2 28650.6 2792.72   1
  12  -2  -2 26102.2 2684.01   1
 -12  -2   2 27042.9 2495.76   3
 -11  -2   2 15412.5 1831.58   3
  11   2  -2 14070.3 1860.83   1
  11  -2  -2 14701.6 1909.00   1
  10   2  -2 89585.6 4326.20   1
  10  -2  -2 88486.1 4336.33   1
 -10  -2   2 86635.7 4113.68   3
   9  -2  -2 966.808 502.702   1
   9   2  -2 850.726 499.856   1
  -9  -2   2 981.377 597.534   3
  -8  -2   2 266443. 6713.02   3
   8  -2  -2 264141. 6435.95   1
   8   2  -2 269647. 6508.14   1
   7  -2  -2 4768.13 823.826   1
   7   2  -2 4444.58 803.600   1
  -7  -2   2 4531.59 941.891   3
   6  -2  -2 351489. 5972.36   1
   6   2  -2 353628. 6058.77   1
  -6  -2   2 358400. 7422.21   3
   5  -2  -2 7728.46 756.564   1
  -5  -2   2 8792.83 1189.09   3
   5   2  -2 7626.91 787.864   1
   4  -2  -2 156587. 5169.30   2
   3  -2  -2 33449.7 2302.22   2
   2  -2  -2 138166. 4539.53   2
   1  -2  -2 143739. 4526.14   2
   1  -2  -2 130478. 3337.69   3
   0  -2  -2 32891.0 1738.55   3
   0  -2  -2 34703.4 2205.26   2
  -1  -2  -2 116402. 3356.43   3
  -1  -2  -2 113693. 3772.68   2
  -2  -2  -2 4316.08 747.725   3
  -2  -2  -2 3956.04 783.600   2
  -3  -2  -2 173395. 4920.99   2
  -3  -2  -2 179396. 4483.48   3
  -4  -2  -2 12126.5 1396.13   2
  -4  -2  -2 11550.0 1243.81   3
  -5  -2  -2 102098. 3708.27   3
  -6  -2  -2 9767.66 1245.20   3
  -7  -2  -2 118695. 4347.70   3
  -8  -2  -2 56902.0 3180.89   3
  -9  -2  -2 69904.9 3662.78   3
 -10  -2  -2 117256. 4994.12   3
 -11  -2  -2 1359.89 626.156   3
 -12  -2  -2 105557. 5164.42   3
 -12  -2  -2 102551. 3215.56   8
 -13  -2  -2 31768.0 2966.78   3
 -13  -2  -2 29279.1 1787.34   8
 -14  -2  -2 126998. 3812.46   8
 -14  -2  -2 130185. 6175.12   3
 -15  -2  -2 4656.50 802.316   8
 -16  -2  -2 33728.1 2028.33   8
 -17  -2  -2 136.439 353.613   8
 -18  -2  -2 11077.5 1154.49   8
 -19  -2  -2 22213.4 1541.86   8
 -20  -2  -2 12063.8 1084.45   8
 -21  -2  -2 12337.4 975.386   8
 -22  -2  -2 1351.05 332.481   8
 -21  -3   2 4610.47 533.828   8
 -20  -3   2 4688.38 609.767   8
 -19  -3   2 6685.37 767.119   8
 -18  -3   2 10812.9 1010.24   8
 -17  -3   2 506.451 320.093   8
 -16  -3   2 30547.0 1485.23   5
 -16  -3   2 33220.6 1852.96   8
 -15  -3   2 318.060 322.957   8
 -15  -3   2-90.7571 354.402   5
 -14  -3   2 59853.5 2479.55   8
 -14  -3   2 61139.1 2345.20   5
 -13  -3   2 28812.0 1703.97   8
 -13  -3   2 28953.7 1682.84   5
 -12  -3   2 17332.3 1310.75   8
 -12  -3   2 18510.7 1369.41   5
 -12  -3   2 19640.8 2421.90   3
 -11  -3   2 69511.0 4394.72   3
 -11  -3   2 66856.7 2577.56   5
 -10  -3   2 4571.32 731.748   5
 -10  -3   2 5906.31 1323.70   3
 -10  -3   2 6319.07 890.833   6
  10  -3  -2 5324.90 1615.28   2
  -9  -3   2 52435.8 3706.23   3
  -9  -3   2 51514.8 2215.86   5
   9  -3  -2 51766.3 4387.73   2
  -9  -3   2 57072.6 2390.64   6
  -8  -3   2 1328.16 725.933   3
   8  -3  -2 1242.67 730.200   2
  -7  -3   2 99086.8 4886.56   3
   7  -3  -2 100629. 5494.38   2
  -6  -3   2 12455.3 1751.00   3
   6  -3  -2 12785.2 1925.44   2
   5  -3  -2 121421. 5591.73   2
  -5  -3   2 116793. 5145.01   3
  -4  -3   2 38084.5 2892.00   3
  -3  -3   2 28754.8 2492.11   3
   2  -3  -2 48790.9 2647.42   3
   1  -3  -2 49075.4 2673.15   3
   0  -3  -2 46098.0 2693.70   3
  -1  -3  -2 19227.1 1791.89   3
  -2  -3  -2 34177.3 2391.96   3
  -3  -3  -2 39413.9 2648.62   3
  -4  -3  -2 64225.3 3449.99   3
  -5  -3  -2 99134.6 4438.93   3
  -6  -3  -2 117506. 4931.01   3
  -7  -3  -2 35447.1 2816.42   3
  -8  -3  -2 28166.0 1667.92   6
  -8  -3  -2 25701.9 2506.50   3
  -8  -3  -2 28816.0 1625.28   5
  -9  -3  -2 12453.7 1143.80   6
  -9  -3  -2 13370.4 1146.93   5
  -9  -3  -2 11440.9 1739.85   3
 -10  -3  -2 2299.47 855.718   3
 -10  -3  -2 2150.12 515.888   5
 -10  -3  -2 1816.36 583.982   6
 -11  -3  -2 52196.3 3826.61   3
 -11  -3  -2 54049.6 2205.50   5
 -12  -3  -2 25945.0 1519.95   5
 -13  -3  -2 58389.5 2460.05   8
 -13  -3  -2 59544.8 2209.38   5
 -14  -3  -2 18639.5 1413.00   8
 -14  -3  -2 19675.2 1225.89   5
 -15  -3  -2 20735.2 1197.72   5
 -15  -3  -2 20735.7 1475.78   8
 -16  -3  -2 4623.38 575.751   5
 -16  -3  -2 4774.47 725.650   8
 -17  -3  -2 14993.1 1176.70   8
 -18  -3  -2 10901.8 945.223   8
 -19  -3  -2 17041.9 1036.89   8
 -17  -4   2 7507.36 566.696   5
  17  -4  -2 9168.92 765.087   6
  16  -4  -2 6720.35 775.538   6
 -16  -4   2 5177.88 562.082   5
  15  -4  -2 15817.0 1273.19   6
 -15  -4   2 13915.0 970.028   5
  14  -4  -2 8651.29 1044.76   6
 -14  -4   2 8478.03 836.179   5
  13  -4  -2 8774.18 1128.62   6
 -13  -4   2 8476.71 918.120   5
 -12  -4   2 8466.40 971.818   5
  12  -4  -2 7158.36 1093.80   6
  11  -4  -2 10026.0 1273.69   6
 -11  -4   2 12099.1 1174.10   5
  10  -4  -2 44430.4 2506.61   6
 -10  -4   2 49303.9 2289.98   5
  -9  -4   2 3986.56 770.338   5
  -9  -4   2 4546.05 922.412   6
   9  -4  -2 3099.29 807.665   6
  -8  -4   2 99233.4 3288.82   5
   8  -4  -2 91533.4 3542.75   6
  -8  -4   2 97239.5 3346.31   6
   7  -4  -2-130.503 448.256   6
  -7  -4   2-395.031 492.631   5
  -7  -4   2 58.9009 430.531   6
  -6  -4   2 24485.2 2766.43   3
   6  -4  -2 25783.8 1873.17   6
  -6  -4   2 25707.8 1789.68   6
  -6  -4   2 26834.9 1743.72   5
   5  -4  -2 13153.5 1360.71   6
  -5  -4   2 13644.2 1270.98   5
  -5  -4   2 13333.3 2029.52   3
  -5  -4   2 13598.8 1289.41   6
  -4  -4   2 2484.84 864.802   3
  -4  -4   2 3803.61 762.012   6
   4  -4  -2 3135.12 744.549   6
  -4  -4   2 3491.66 652.052   5
  -3  -4   2 107.685 380.081   6
   3  -4  -2 274.984 452.949   6
  -3  -4   2-93.1252 508.011   5
  -3  -4   2-118.980 575.016   3
  -2  -4   2 18098.5 1351.41   5
  -2  -4   2 13888.8 2052.30   3
  -2  -4   2 18805.3 1461.40   6
   2  -4  -2 19022.8 1619.42   6
   1  -4  -2 43652.3 2327.71   6
  -1  -4   2 40683.7 1952.46   5
  -1  -4   2 43959.5 2190.96   6
  -1  -4   2 39833.4 3408.97   3
   0  -4  -2 12044.2 1025.32   5
   0  -4   2 10874.8 1807.93   3
   0  -4  -2 12413.8 1306.30   6
   0  -4   2 11309.3 1184.72   6
   1  -4   2 41037.7 3473.37   3
  -1  -4  -2 45316.6 1968.04   5
  -1  -4  -2 43466.3 2292.12   6
   1  -4   2 47036.7 2262.96   6
   2  -4   2 4211.31 748.490   6
  -2  -4  -2 4375.24 712.895   5
  -2  -4  -2 3128.41 725.340   6
  -3  -4  -2 68384.9 2537.18   5
   3  -4   2 64959.6 2644.74   6
  -3  -4  -2 67660.8 2822.97   6
  -4  -4  -2 26.4543 445.122   6
   4  -4   2 252.298 380.326   6
  -4  -4  -2 312.973 375.082   5
  -5  -4  -2 36787.4 2096.43   6
  -5  -4  -2 39673.2 1975.36   5
   5  -4   2 36693.6 2011.56   6
  -6  -4  -2 10579.0 1188.98   6
  -6  -4  -2 11187.0 1102.68   5
   6  -4   2 8576.43 1026.43   6
   7  -4   2 32645.6 1914.05   6
  -7  -4  -2 31940.7 1971.37   6
  -7  -4  -2 36090.9 1906.69   5
  -8  -4  -2 8544.45 979.393   5
  -8  -4  -2 8151.14 1113.69   6
  -9  -4  -2 20663.9 1442.58   5
  -9  -4  -2 20585.9 1524.92   6
 -10  -4  -2 13453.7 1150.00   5
 -11  -4  -2 1133.70 459.212   5
 -12  -4  -2 15230.9 1117.04   5
 -13  -4  -2 4740.93 622.803   5
 -14  -4  -2 7176.64 702.266   5
 -15  -4  -2 1084.82 306.848   5
 -16  -4  -2 14254.2 733.477   5
 -14  -5   2 7336.45 531.195   5
 -13  -5   2 270.303 211.119   5
  13  -5  -2-390.253 300.276   6
  12  -5  -2 6123.21 685.219   6
 -12  -5   2 4340.56 524.392   5
 -11  -5   2 93.9232 308.509   5
  11  -5  -2 89.7468 329.819   6
 -10  -5   2 543.793 360.931   5
  10  -5  -2 1140.83 476.805   6
  -9  -5   2 8840.63 869.804   5
   9  -5  -2 11146.2 1132.17   6
   8  -5  -2 4563.66 760.339   6
  -8  -5   2 4070.70 652.158   5
  -7  -5   2 21291.2 1373.82   5
   7  -5  -2 22805.9 1606.09   6
  -7  -5   2 22974.2 1502.12   6
  -6  -5   2 6020.36 893.032   6
   6  -5  -2 5089.08 830.404   6
  -6  -5   2 5197.39 747.887   5
   5  -5  -2 2674.69 637.995   6
  -5  -5   2 2937.37 682.895   6
  -5  -5   2 3241.56 593.058   5
  -4  -5   2 29314.3 1740.43   6
  -4  -5   2 28516.0 1572.35   5
   4  -5  -2 28641.1 1831.85   6
  -3  -5   2 895.231 453.372   5
   3  -5  -2-261.895 591.075   6
  -3  -5   2 1189.28 606.006   6
   2  -5  -2 54372.6 2509.47   6
  -2  -5   2 52586.8 2333.35   6
  -2  -5   2 47950.2 1922.84   5
   1  -5  -2 11430.7 1226.20   6
  -1  -5   2 14527.2 1385.31   6
   0  -5  -2 15912.8 1432.46   6
   0  -5   2 17458.1 1397.28   6
   1  -5   2 13480.0 1194.47   6
  -1  -5  -2 12744.4 1253.74   6
  -2  -5  -2 3516.04 522.259   5
   2  -5   2 3547.13 707.369   6
  -2  -5  -2 4811.79 851.279   6
  -3  -5  -2 258.931 297.979   5
   3  -5   2 62.6141 378.156   6
  -3  -5  -2 290.095 462.424   6
  -4  -5  -2 9217.22 861.394   5
  -4  -5  -2 11351.7 1194.24   6
   4  -5   2 8857.35 907.673   6
  -5  -5  -2 808.879 377.277   5
   5  -5   2 942.455 442.749   6
  -5  -5  -2 586.456 509.899   6
  -6  -5  -2 16815.5 1129.79   5
  -6  -5  -2 17887.3 1386.44   6
   6  -5   2 16934.0 1163.23   6
  -7  -5  -2 1279.49 560.346   6
  -7  -5  -2 613.331 364.696   5
  -8  -5  -2 3525.50 553.086   5
  -9  -5  -2 7824.75 734.895   5
 -10  -5  -2 3000.99 480.642   5
 -11  -5  -2 6153.53 585.696   5
 -12  -5  -2 1289.51 287.564   5
 -13  -5  -2 3242.48 356.151   5
   5  -6  -2 1812.82 361.243   6
   4  -6  -2 1966.43 387.417   6
   3  -6  -2 1647.61 393.925   6
   2  -6  -2 2718.01 480.764   6
   1  -6  -2 14480.6 884.618   6
   0  -6  -2 3475.70 505.013   6
  -1  -6  -2 11081.2 780.694   6
  -2  -6  -2 6696.31 605.698   6
 -24   0   3 309.693 206.533   8
 -23   0   3-141.065 273.676   8
 -22   0   3-7.70742 246.137   8
 -21   0   3-52.9935 291.408   8
 -20   0   3 164.654 301.388   8
 -19   0   3-383.028 402.600   8
 -18   0   3-371.809 368.165   8
  17   0  -3-128.943 683.060   1
 -17   0   3-81.3018 279.847   8
 -16   0   3-68.0759 283.189   8
 -15   0   3 359.570 418.704   3
 -14   0   3-19.2616 327.470   3
 -13   0   3 300.175 408.205   3
 -12   0   3 118.533 329.676   3
 -11   0   3 30.3074 336.630   3
 -10   0   3-18.9075 279.379   3
  -9   0   3 74.1580 261.384   3
  -8   0   3 12.3673 237.408   3
  -7   0   3 44.5257 219.108   3
  -6   0   3-59.9896 200.490   3
   5   0  -3-20.7563 378.007   1
  -5   0   3-69.0033 212.773   3
  -4   0   3 41.2491 169.403   3
   4   0  -3 19.5417 329.087   1
   3   0  -3 57.7193 269.160   1
   2   0  -3-162.766 298.760   2
   2   0  -3 96.2439 265.807   1
   1   0  -3 76.5649 309.162   2
   0   0  -3 7.52881 240.681   3
   0   0  -3 140.461 311.298   2
  -1   0  -3 9.17347 280.202   3
  -1   0  -3-177.617 386.503   2
  -2   0  -3 60.8754 384.509   2
  -5   0  -3-12.3710 320.527   3
  -6   0  -3-74.7585 366.175   3
  -7   0  -3-36.7214 403.241   3
  -8   0  -3 205.871 521.623   3
  -9   0  -3 106.806 430.640   3
 -10   0  -3 137.076 497.551   3
 -11   0  -3 310.817 506.106   3
 -12   0  -3 220.088 538.654   3
 -13   0  -3 238.458 559.608   3
 -14   0  -3 499.300 606.945   3
 -14   0  -3-432.150 411.217   8
 -15   0  -3 1909.00 862.699   3
 -15   0  -3-297.339 385.299   8
 -16   0  -3-136.160 411.719   8
 -17   0  -3-196.484 360.976   8
 -18   0  -3 102.642 331.126   8
 -19   0  -3 216.852 406.526   8
 -20   0  -3 115.378 344.302   8
 -21   0  -3 22.9317 266.495   8
 -22   0  -3-2.84530 232.244   8
 -23   0  -3-215.980 159.894   4
 -25  -1   3 4684.38 462.088   8
 -24  -1   3-87.5905 210.619   8
 -23  -1   3 112.479 298.506   8
 -22  -1   3 3329.21 625.886   8
 -21  -1   3 1628.08 497.718   8
 -20  -1   3 1255.15 462.407   8
 -19  -1   3 966.419 470.801   8
 -18  -1   3 24701.1 1699.90   8
 -17  -1   3 606.375 417.071   8
  17   1  -3 168.687 666.032   1
 -17  -1   3 267.108 412.913   3
  17  -1  -3-226.203 710.633   1
 -16  -1   3 3429.56 987.792   3
  16  -1  -3 1778.90 867.186   1
 -16  -1   3 2349.62 548.786   8
  16   1  -3 1837.99 927.139   1
 -15  -1   3 9479.08 980.361   8
  15  -1  -3 10013.7 1912.03   1
 -15  -1   3 8283.68 1412.07   3
  15   1  -3 7706.91 1725.16   1
 -14  -1   3 629.526 437.667   3
 -13  -1   3 8227.48 1250.95   3
 -12  -1   3 1485.34 630.777   3
 -11  -1   3 3778.28 843.848   3
 -10  -1   3 3773.37 777.620   3
 -10   1   3 4140.26 803.858   3
  -9  -1   3 16780.9 1490.42   3
  -9   1   3 19423.0 1444.41   3
  -8   1   3 25897.3 1447.77   3
  -8  -1   3 23487.4 1669.55   3
   7  -1  -3 10379.7 1236.54   1
  -7  -1   3 10663.2 1128.88   3
   6  -1  -3 4152.76 730.864   1
  -6  -1   3 4604.94 739.081   3
   6   1  -3 4196.55 744.566   1
   5  -1  -3 389.716 319.120   1
   5   1  -3 167.494 332.685   1
   4   1  -3 141390. 3351.39   1
   4  -1  -3 143780. 3410.38   1
   3   1  -3 330486. 4474.85   1
   3  -1  -3 323991. 4479.32   1
   2  -1  -3 52120.8 996.231   3
   1  -1  -3 574233. 4081.49   3
   0  -1  -3 442434. 4170.41   3
   0  -1  -3 423453. 6782.78   2
  -1  -1  -3 31698.5 1830.79   2
  -1  -1  -3 36534.9 1368.46   3
  -2  -1  -3 16560.1 1051.31   3
  -2  -1  -3 15813.0 1306.34   2
  -3  -1  -3 2449.09 647.570   2
  -3  -1  -3 3277.02 576.644   3
  -4  -1  -3 89445.0 2798.56   3
  -4  -1  -3 85701.6 3332.20   2
  -5  -1  -3 99013.1 3136.53   3
  -6  -1  -3 78108.7 2982.46   3
  -6   1  -3 69687.3 3395.10   3
  -7   1  -3 97370.5 4222.83   3
  -7  -1  -3 100101. 3594.25   3
  -8  -1  -3 23532.8 1888.41   3
  -8   1  -3 20779.0 2136.20   3
  -9  -1  -3 13071.3 1509.00   3
  -9   1  -3 12544.0 1800.78   3
 -10   1  -3 341.107 545.546   3
 -10  -1  -3 726.643 506.112   3
 -11   1  -3-248.873 794.517   3
 -11  -1  -3 413.384 510.703   3
 -12   1  -3-23.7340 601.386   3
 -12  -1  -3 104.839 470.458   3
 -13  -1  -3 168.644 302.308   8
 -13  -1  -3 617.782 600.763   3
 -14  -1  -3 2506.82 624.902   8
 -14   1  -3 1843.36 517.850   8
 -14  -1  -3 3697.43 1190.53   3
 -15  -1  -3 53.0885 562.000   3
 -15   1  -3-243.194 308.693   8
 -15  -1  -3-49.3174 366.626   8
 -16  -1  -3-235.718 360.146   8
 -16   1  -3-235.152 341.778   8
 -17   1  -3 3876.70 703.665   8
 -17  -1  -3 4568.20 833.685   8
 -18   1  -3 20.1930 301.595   8
 -18  -1  -3 479.156 406.843   8
 -19  -1  -3-66.1697 419.008   8
 -19   1  -3-213.076 293.127   8
 -20  -1  -3 515.062 367.932   8
 -21  -1  -3 807.245 376.743   8
 -22  -1  -3 2218.53 432.583   8
 -23   1  -3-119.221 160.204   4
 -24  -2   3 1235.14 278.932   8
 -23  -2   3 3549.96 515.184   8
 -22  -2   3 1003.82 389.383   8
 -21  -2   3 4237.23 690.099   8
 -20  -2   3 3892.88 687.805   8
 -19  -2   3 9009.14 1032.39   8
 -18  -2   3 1217.48 498.289   8
 -17  -2   3 13047.1 1251.00   8
 -16  -2   3 10633.7 1115.82   8
 -15  -2   3 2402.60 574.664   8
 -15  -2   3 2079.98 761.687   3
 -14  -2   3 3014.35 615.771   8
 -14  -2   3 2514.71 896.902   3
  13   2  -3 1102.50 588.470   1
 -13  -2   3 1794.07 438.331   8
 -13  -2   3 2304.32 904.236   3
  12  -2  -3 39582.8 3269.65   1
 -12  -2   3 39208.9 2968.14   3
  12   2  -3 41676.7 3366.53   1
  11   2  -3 10931.5 1627.87   1
 -11  -2   3 10084.0 1527.84   3
  11  -2  -3 10115.1 1553.31   1
  10   2  -3 12495.6 1641.76   1
 -10  -2   3 13127.5 1652.78   3
  10  -2  -3 11923.7 1592.81   1
   9   2  -3 399.831 365.395   1
  -9  -2   3 308.835 439.780   3
   9  -2  -3 520.934 375.432   1
   8  -2  -3 3556.94 769.973   1
  -8  -2   3 3817.93 987.306   3
   8   2  -3 3087.01 753.025   1
   7  -2  -3 27799.8 1903.45   1
   7   2  -3 27791.8 1903.81   1
  -7  -2   3 29944.5 2270.32   3
  -6  -2   3 14565.9 1585.41   3
   6   2  -3 13250.3 1176.87   1
   6  -2  -3 13282.8 1149.36   1
   5  -2  -3 91693.5 4265.66   2
   4  -2  -3 7109.70 1222.09   2
   3  -2  -3 27971.2 2263.95   2
   3  -2  -3 27500.7 1348.75   3
   2  -2  -3 28037.7 2234.01   2
   2  -2  -3 27697.2 1396.21   3
   1  -2  -3 33842.8 1613.13   3
   1  -2  -3 35445.0 2489.96   2
   0  -2  -3 6199.29 781.607   3
   0  -2  -3 5920.19 1077.66   2
  -1  -2  -3 870.582 560.289   2
  -1  -2  -3 1428.74 428.628   3
  -2  -2  -3 4935.83 760.646   3
  -2  -2  -3 4673.65 913.288   2
  -3  -2  -3 20901.7 1871.06   2
  -3  -2  -3 20182.4 1521.56   3
  -4  -2  -3 4666.22 807.372   3
  -4  -2  -3 5104.61 1046.71   2
  -5  -2  -3 2886.66 734.080   3
  -5  -2  -3 2838.51 847.979   2
  -6  -2  -3 2291.31 721.650   3
  -7  -2  -3 25806.1 2109.96   3
  -8  -2  -3 45933.4 2904.45   3
  -9  -2  -3 1057.84 560.231   3
 -10  -2  -3 28189.1 2504.41   3
 -11  -2  -3 3344.86 954.276   3
 -11  -2  -3 2649.01 560.851   8
 -12  -2  -3 52239.8 2374.39   8
 -12  -2  -3 49000.7 1864.54   5
 -12  -2  -3 54252.7 3803.83   3
 -13  -2  -3 1332.99 806.222   3
 -13  -2  -3 812.208 432.473   8
 -14  -2  -3 55726.1 2576.44   8
 -15  -2  -3 220.497 402.058   8
 -16  -2  -3 467.127 379.323   8
 -17  -2  -3 3187.55 702.903   8
 -18  -2  -3-171.367 356.018   8
 -19  -2  -3 8721.22 984.716   8
 -20  -2  -3 563.642 350.758   8
 -21  -2  -3 2684.26 470.325   8
 -22  -2  -3 639.284 232.739   8
 -22   2  -3 384.895 164.089   4
 -22  -3   3 7241.04 559.348   8
 -21  -3   3 53.3922 202.070   8
 -20  -3   3 6401.03 701.629   8
 -19  -3   3 3920.56 615.050   8
 -18  -3   3 384.780 289.267   8
 -17  -3   3 16021.0 1279.57   8
 -16  -3   3 8906.47 843.124   5
 -16  -3   3 9007.55 995.013   8
 -15  -3   3 21709.4 1524.99   8
 -15  -3   3 20644.7 1351.07   5
 -14  -3   3 17640.5 1358.01   8
 -14  -3   3 17628.1 1303.40   5
 -13  -3   3 18257.5 1350.26   5
 -13  -3   3 18468.9 1371.59   8
 -12  -3   3 813.268 402.838   5
  12  -3  -3 736.706 1089.57   2
 -12  -3   3 1519.38 801.520   3
 -12  -3   3 316.498 263.017   8
 -11  -3   3 6250.45 1348.91   3
 -11  -3   3 6540.50 867.181   5
  11  -3  -3 5380.17 1499.60   2
 -10  -3   3-103.144 503.283   3
  10  -3  -3-976.368 813.004   2
 -10  -3   3 140.204 354.021   5
 -10  -3   3 582.015 450.844   6
   9  -3  -3 8013.73 1765.22   2
  -9  -3   3 9305.45 1618.22   3
  -9  -3   3 8316.41 920.689   5
  -9  -3   3 10034.6 1028.05   6
  -8  -3   3 650.062 524.325   3
   8  -3  -3 1266.50 802.459   2
  -7  -3   3 11427.0 1753.20   3
   7  -3  -3 12983.7 2060.98   2
   6  -3  -3 17190.8 2306.54   2
  -6  -3   3 15516.0 1996.71   3
  -5  -3   3 8552.58 1439.79   3
   5  -3  -3 10732.5 1775.60   2
   4  -3  -3 50112.5 3661.06   2
  -4  -3   3 43812.3 3187.72   3
   3  -3  -3 15509.3 2040.05   2
   2  -3  -3 116167. 5117.20   2
   1  -3  -3 1946.44 744.416   2
   0  -3  -3 28893.9 2035.49   3
   0  -3  -3 30405.6 2473.51   2
  -1  -3  -3 5878.48 1183.74   2
  -1  -3  -3 6144.79 1000.30   3
  -2  -3  -3 12075.5 1393.34   3
  -3  -3  -3 32989.0 2359.16   3
  -4  -3  -3 105619. 4339.44   3
  -5  -3  -3 8676.18 1292.40   3
  -6  -3  -3 8025.60 1344.43   3
  -7  -3  -3 10586.7 1066.00   6
  -7  -3  -3 9448.30 1499.85   3
  -7  -3  -3 10339.3 972.792   5
  -8  -3  -3-94.5307 393.768   5
  -8  -3  -3 278.490 589.487   3
  -8  -3  -3 220.708 363.025   6
  -9  -3  -3 25385.6 1651.88   6
  -9  -3  -3 27207.4 2650.80   3
  -9  -3  -3 29595.9 1640.04   5
 -10  -3  -3 51877.3 3729.39   3
 -10  -3  -3 53488.7 2180.64   5
 -11  -3  -3 1872.42 514.638   5
 -12  -3  -3 916.237 377.692   5
 -13  -3  -3 1191.69 411.002   5
 -13  -3  -3 1109.72 435.646   8
 -14  -3  -3 40529.9 1685.76   5
 -14  -3  -3 38388.5 1994.34   8
 -15  -3  -3 475.456 326.798   5
 -15  -3  -3 230.233 274.204   8
 -16  -3  -3 8753.26 708.544   5
 -16  -3  -3 9962.75 976.327   8
 -17  -3  -3 888.809 373.572   8
 -18  -3  -3 7125.45 723.783   8
 -18   3  -3 6850.64 653.145   4
  18  -4  -3 3121.98 440.944   6
  17  -4  -3 3583.39 555.983   6
 -17  -4   3 3147.01 392.481   5
 -16  -4   3 24973.3 1187.27   5
  16  -4  -3 29596.3 1640.75   6
 -15  -4   3 9667.33 839.214   5
  15  -4  -3 12087.0 1197.24   6
  14  -4  -3 17396.4 1548.45   6
 -14  -4   3 15381.4 1150.50   5
  13  -4  -3 11281.2 1391.02   6
 -13  -4   3 11663.2 1062.59   5
 -12  -4   3 12660.1 1143.29   5
  12  -4  -3 12089.5 1417.94   6
 -11  -4   3 872.272 469.587   5
  11  -4  -3 1211.11 588.039   6
 -10  -4   3 20719.9 1531.08   5
  10  -4  -3 20281.7 1765.41   6
  -9  -4   3 9355.70 1059.00   5
   9  -4  -3 10004.8 1271.62   6
  -9  -4   3 11407.7 1248.76   6
  -8  -4   3 21094.9 1554.01   5
  -8  -4   3 21352.8 1586.56   6
   8  -4  -3 19228.0 1687.14   6
   7  -4  -3 4905.60 909.173   6
  -7  -4   3 5063.86 901.218   6
  -7  -4   3 5171.65 859.033   5
  -6  -4   3 9949.81 1106.35   5
  -6  -4   3 10503.1 1166.32   6
   6  -4  -3 8708.66 1147.77   6
   5  -4  -3 1919.18 638.655   6
  -5  -4   3 2081.87 941.619   3
  -5  -4   3 2222.56 601.236   5
  -5  -4   3 2098.13 650.255   6
  -4  -4   3 132.945 415.356   6
  -4  -4   3-558.265 570.743   5
   4  -4  -3-635.448 493.321   6
  -4  -4   3-829.509 644.199   3
  -3  -4   3 41540.2 3579.96   3
   3  -4  -3 45217.0 2448.30   6
  -3  -4   3 44511.2 2187.56   5
  -3  -4   3 47528.6 2266.71   6
  -2  -4   3 4249.69 1224.67   3
   2  -4  -3 6096.54 1059.45   6
  -2  -4   3 5394.53 870.132   6
  -2  -4   3 4694.95 788.383   5
  -1  -4   3 46670.6 3804.49   3
  -1  -4   3 45257.4 2090.56   5
   1  -4  -3 49945.9 2509.35   6
  -1  -4   3 50161.6 2319.50   6
   0  -4   3 4646.29 1160.23   3
   0  -4   3 4158.39 768.814   6
   0  -4  -3 3952.48 637.508   5
   0  -4  -3 5070.64 936.767   6
  -1  -4  -3 40529.2 1853.40   5
   1  -4   3 41547.8 2076.94   6
  -1  -4  -3 39759.2 2183.61   6
   2  -4   3 3810.06 670.682   6
  -2  -4  -3 4540.38 684.791   5
  -2  -4  -3 3553.98 776.897   6
  -3  -4  -3 44859.1 2012.13   5
  -3  -4  -3 42695.3 2265.40   6
   3  -4   3 44300.5 2115.95   6
  -4  -4  -3 13786.0 1364.81   6
   4  -4   3 14067.6 1236.60   6
  -4  -4  -3 15158.3 1221.96   5
  -5  -4  -3 7376.13 881.320   5
  -5  -4  -3 6896.94 998.046   6
  -6  -4  -3 31554.2 1920.47   6
  -6  -4  -3 34208.5 1799.37   5
  -7  -4  -3 4831.84 771.755   5
  -7  -4  -3 4021.74 771.814   6
  -8  -4  -3 31554.7 1913.42   6
  -8  -4  -3 33942.8 1812.39   5
  -9  -4  -3 1928.74 537.033   5
  -9  -4  -3 2504.41 662.907   6
 -10  -4  -3 2630.28 554.914   5
 -11  -4  -3 3937.98 648.848   5
 -12  -4  -3 3529.33 593.433   5
 -13  -4  -3 2044.67 457.565   5
 -14  -4  -3 6387.77 621.464   5
 -15  -4  -3 2278.52 364.619   5
 -16  -4  -3 1658.62 270.053   5
 -15  -5   3 69.3233 139.876   5
 -14  -5   3-60.6227 199.075   5
  14  -5  -3-311.681 262.590   6
 -13  -5   3 7784.17 623.129   5
  13  -5  -3 9687.77 793.020   6
 -12  -5   3 2129.58 411.381   5
  12  -5  -3 2913.00 573.690   6
 -11  -5   3 40056.1 1594.05   5
  11  -5  -3 47153.0 2159.26   6
  10  -5  -3 356.505 532.946   6
 -10  -5   3-346.947 375.394   5
  -9  -5   3 19772.1 1280.15   5
   9  -5  -3 20984.6 1553.55   6
   8  -5  -3 10544.6 1111.21   6
  -8  -5   3 10817.6 999.978   5
  -7  -5   3 36133.5 1797.12   5
   7  -5  -3 36695.7 2024.14   6
  -7  -5   3 37502.8 1879.88   6
  -6  -5   3 15832.8 1229.18   5
   6  -5  -3 16080.0 1407.63   6
  -6  -5   3 15964.3 1273.74   6
  -5  -5   3 17915.0 1290.85   5
   5  -5  -3 18003.0 1499.52   6
  -5  -5   3 18378.7 1359.18   6
   4  -5  -3 631.825 570.317   6
  -4  -5   3 1462.87 498.161   5
  -4  -5   3 1132.82 527.476   6
  -3  -5   3-215.371 380.000   6
   3  -5  -3-911.818 685.526   6
  -3  -5   3 213.386 316.448   5
   2  -5  -3 2879.16 694.077   6
  -2  -5   3 3195.26 552.773   5
  -2  -5   3 3068.57 634.108   6
  -1  -5   3 2015.45 548.956   6
   1  -5  -3 1949.07 639.371   6
   0  -5   3 11713.6 1066.16   6
   0  -5  -3 11497.3 1243.29   6
  -1  -5  -3 10019.8 813.513   5
   1  -5   3 13945.5 1153.82   6
  -1  -5  -3 13613.8 1328.55   6
  -2  -5  -3 13903.3 960.762   5
   2  -5   3 15148.1 1168.02   6
  -2  -5  -3 17711.6 1475.94   6
  -3  -5  -3 5523.93 653.956   5
   3  -5   3 5399.99 716.096   6
  -3  -5  -3 5656.32 899.230   6
  -4  -5  -3 10200.4 876.941   5
   4  -5   3 9170.72 868.824   6
  -4  -5  -3 11349.8 1159.52   6
  -5  -5  -3 4463.55 604.585   5
  -5  -5  -3 4490.79 767.560   6
  -6  -5  -3 6891.59 902.799   6
  -6  -5  -3 7079.74 729.069   5
  -7  -5  -3 24278.7 1278.35   5
  -7  -5  -3 24167.6 1479.08   6
  -8  -5  -3 5921.20 646.321   5
  -9  -5  -3 11073.9 816.422   5
 -10  -5  -3 255.147 255.865   5
 -11  -5  -3 9518.71 659.360   5
 -12  -5  -3 3071.78 376.273   5
 -13  -5  -3 12625.8 590.417   5
   5  -6  -3 7048.40 649.102   6
   4  -6  -3 6426.81 627.850   6
   3  -6  -3 18610.3 987.310   6
   2  -6  -3 2642.51 497.452   6
   1  -6  -3 23883.1 1097.36   6
   0  -6  -3 2455.74 437.064   6
  -1  -6  -3 4794.95 518.669   6
  -2  -6  -3 1328.42 332.612   6
 -24   0   4-144.296 223.191   8
 -23   0   4 48816.6 1892.72   8
 -22   0   4 1327.96 422.000   8
 -21   0   4 30746.3 1727.05   8
 -20   0   4 10851.4 1088.04   8
 -19   0   4 9768.99 1032.74   8
 -18   0   4 158346. 4021.35   8
 -17   0   4 28934.8 1703.02   8
  17   0  -4 28791.6 3523.43   1
 -16   0   4 152163. 3732.23   8
  16   0  -4 154047. 7754.73   1
  15   0  -4 22604.6 2879.51   1
 -14   0   4 85942.4 3717.39   3
  14   0  -4 83275.9 5183.50   1
 -13   0   4 214.386 331.125   3
  13   0  -4 750.778 728.328   1
 -12   0   4 264598. 5706.41   3
 -11   0   4 9293.59 1040.85   3
 -10   0   4 159806. 3786.54   3
   9   0  -4 296300. 7244.41   1
  -9   0   4 291177. 4776.63   3
  -8   0   4 3206.80 507.578   3
   8   0  -4 3288.17 832.828   1
   7   0  -4 220125. 5553.08   1
  -7   0   4 219301. 3496.55   3
  -6   0   4 562.022 252.876   3
   6   0  -4 343.793 383.515   1
  -5   0   4 129021. 2282.77   3
   5   0  -4 125860. 3621.17   1
   4   0  -4 118447. 3222.36   1
   3   0  -4 466001. 5855.53   1
   2   0  -4 238.532 369.243   2
   1   0  -4 874.634 464.917   2
   0   0  -4 95399.7 2443.35   3
   0   0  -4 96180.5 2731.95   2
  -1   0  -4 229705. 3992.83   3
  -1   0  -4 227846. 4337.40   2
  -2   0  -4 297317. 5194.56   2
  -2   0  -4 303992. 4883.91   3
  -3   0  -4 78247.1 2898.56   2
  -3   0  -4 74688.9 2591.77   3
  -4   0  -4 15586.0 1340.13   3
  -5   0  -4 15663.7 1435.21   3
  -6   0  -4 391257. 7320.91   3
  -7   0  -4 11701.5 1409.95   3
  -8   0  -4 717215. 11235.6   3
  -9   0  -4 16828.4 1855.43   3
 -10   0  -4 88503.9 4534.81   3
 -11   0  -4 39795.7 3193.78   3
 -12   0  -4 24967.7 2664.38   3
 -13   0  -4 53660.3 4068.25   3
 -13   0  -4 52798.9 2451.30   8
 -14   0  -4 977.213 650.095   3
 -14   0  -4 936.844 425.560   8
 -15   0  -4 79966.0 5274.72   3
 -15   0  -4 77021.2 3108.52   8
 -16   0  -4 5650.76 934.326   8
 -17   0  -4 88432.7 3327.59   8
 -18   0  -4 2444.96 630.171   8
 -19   0  -4 68537.0 2730.78   8
 -20   0  -4 10058.0 1007.79   8
 -21   0  -4 27190.5 1438.41   8
 -22   0  -4 18299.7 964.118   4
 -25  -1   4 945.642 248.884   8
 -24  -1   4 17702.3 1078.23   8
 -23  -1   4 5836.23 713.663   8
 -22  -1   4 28344.7 1641.59   8
 -21  -1   4 12530.7 1156.05   8
 -20  -1   4 24663.6 1656.46   8
 -19  -1   4 8414.32 1000.41   8
 -18  -1   4 216.230 352.190   8
  17  -1  -4 37590.9 4021.06   1
 -17  -1   4 40521.3 2091.95   8
  17   1  -4 43795.9 4295.91   1
  16   1  -4-761.758 925.993   1
 -16  -1   4 134.918 346.055   3
  16  -1  -4-370.018 721.804   1
 -16  -1   4 0.63982 267.567   8
 -15  -1   4 195361. 4281.37   8
  15   1  -4 193734. 8410.69   1
  15  -1  -4 182342. 8108.20   1
 -15  -1   4 190730. 6377.50   3
  14   1  -4 1429.28 828.234   1
  14  -1  -4 1203.01 738.249   1
 -14  -1   4 1788.28 714.886   3
  13  -1  -4 151002. 6698.64   1
  13   1  -4 159871. 6840.23   1
 -13  -1   4 153717. 5197.65   3
  12   1  -4 5510.69 1272.77   1
  12  -1  -4 6050.38 1334.98   1
 -12  -1   4 6090.56 1039.81   3
 -11  -1   4 37349.0 2383.09   3
  11   1  -4 34783.1 2915.68   1
  11  -1  -4 36957.2 2945.18   1
 -10  -1   4 23208.9 1799.06   3
  10   1  -4 23819.8 2236.62   1
  10  -1  -4 23713.4 2237.01   1
   9  -1  -4 125674. 4815.63   1
  -9  -1   4 128746. 3979.86   3
   9   1  -4 126244. 4794.38   1
   8   1  -4 126655. 4498.59   1
   8  -1  -4 125883. 4506.27   1
  -8  -1   4 125516. 3794.87   3
  -7  -1   4 388627. 6420.19   3
   7   1  -4 382907. 7327.71   1
   7  -1  -4 385157. 7354.76   1
  -6  -1   4 102903. 3188.07   3
   6   1  -4 108262. 3601.20   1
   6  -1  -4 105828. 3570.67   1
   5  -1  -4 12670.2 1183.29   1
   5   1  -4 13301.3 1204.54   1
   4  -1  -4 51415.8 2121.79   1
   4   1  -4 52482.7 2108.38   1
   3   1  -4 503439. 3598.13   2
   3  -1  -4 555679. 8405.91   2
   2  -1  -4 999999. 4268.56   3
   1  -1  -4 192673. 2451.75   3
   0  -1  -4 690719. 9331.38   2
   0  -1  -4 701954. 5554.77   3
  -1  -1  -4 3533.93 500.651   3
  -1  -1  -4 3193.07 719.561   2
  -2  -1  -4 59949.1 2000.85   3
  -2  -1  -4 54734.2 2675.40   2
  -3  -1  -4 304612. 4939.62   3
  -3  -1  -4 291002. 6335.07   2
  -4  -1  -4 13320.7 1162.38   3
  -4  -1  -4 14791.0 1553.33   2
  -5  -1  -4 215702. 4905.67   3
  -6  -1  -4-3.97832 416.132   3
  -7  -1  -4 106129. 3952.20   3
  -7   1  -4 100615. 4541.62   3
  -8  -1  -4 18264.0 1751.79   3
  -8   1  -4 15039.5 1966.90   3
  -9   1  -4 49066.6 3633.05   3
  -9  -1  -4 51579.6 3098.91   3
 -10   1  -4 27029.0 2807.66   3
 -10  -1  -4 29236.2 2512.04   3
 -11   1  -4 67641.4 4668.08   3
 -11  -1  -4 72615.4 4134.64   3
 -12  -1  -4 62409.9 4033.46   3
 -12  -1  -4 62381.4 2578.08   8
 -13  -1  -4 28623.0 2891.53   3
 -13  -1  -4 30281.8 1859.71   8
 -13   1  -4 27133.3 1755.29   8
 -14  -1  -4 37729.0 2144.25   8
 -14  -1  -4 38556.9 3511.88   3
 -14   1  -4 33263.9 2005.29   8
 -15   1  -4 453.072 343.084   8
 -15  -1  -4 216.941 356.332   8
 -16   1  -4 18324.2 1509.72   8
 -16  -1  -4 21378.6 1702.96   8
 -17  -1  -4 647.506 470.914   8
 -17   1  -4 93.7249 311.107   8
 -18   1  -4 37237.6 1963.43   8
 -18  -1  -4 40358.1 2209.59   8
 -19  -1  -4 11494.6 1174.78   8
 -20  -1  -4 13075.3 1140.62   8
 -21  -1  -4 7591.00 808.946   8
 -22   1  -4 11094.0 759.773   4
 -22  -1  -4 12793.5 856.816   8
 -24  -2   4 1439.55 306.432   8
 -23  -2   4 14541.6 989.907   8
 -22  -2   4 4218.85 646.696   8
 -21  -2   4 30978.9 1714.07   8
 -20  -2   4 11732.7 1145.45   8
 -19  -2   4 34533.9 1964.62   8
 -18  -2   4 37216.5 2058.08   8
 -17  -2   4 6772.16 934.845   8
 -16  -2   4 44562.2 2212.56   8
 -15  -2   4 1385.43 754.631   3
 -15  -2   4 1520.27 515.757   8
 -14  -2   4 34780.8 1887.14   8
 -14  -2   4 32967.2 2894.30   3
  13   2  -4 23718.0 2627.45   1
 -13  -2   4 26120.9 1553.86   8
 -13  -2   4 25390.5 2469.03   3
 -12  -2   4 47173.1 3248.93   3
  12   2  -4 46507.2 3519.96   1
  12  -2  -4 44919.5 3470.10   1
  11  -2  -4 53476.1 3587.97   1
 -11  -2   4 54474.5 3399.15   3
  11   2  -4 51685.8 3541.55   1
 -10  -2   4 187180. 6062.62   3
  10   2  -4 193033. 6347.13   1
  10  -2  -4 182268. 6175.52   1
  -9  -2   4 52231.1 3156.24   3
   9  -2  -4 49381.1 3002.39   1
   9   2  -4 50101.2 3025.04   1
   8   2  -4 29209.0 2135.09   1
  -8  -2   4 31970.8 2496.68   3
   8  -2  -4 29004.9 2120.72   1
   7   2  -4 103728. 3606.28   1
  -7  -2   4 108798. 4320.83   3
   7  -2  -4 99167.0 3516.77   1
  -6  -2   4 4463.12 938.757   3
   6  -2  -4 4433.30 1162.72   2
   5  -2  -4 141759. 5511.63   2
   4  -2  -4 46178.7 3145.98   2
   3  -2  -4 208886. 3119.78   3
   3  -2  -4 231357. 6794.87   2
   2  -2  -4 28096.0 1273.17   3
   2  -2  -4 26628.3 2324.15   2
   1  -2  -4 247595. 6907.74   2
   1  -2  -4 228735. 3965.85   3
   0  -2  -4 19013.7 1248.24   3
   0  -2  -4 18797.7 1889.27   2
  -1  -2  -4 13066.0 1098.42   3
  -1  -2  -4 11340.7 1474.18   2
  -2  -2  -4 219419. 6220.70   2
  -2  -2  -4 218957. 4682.54   3
  -3  -2  -4 2665.05 839.307   2
  -3  -2  -4 3436.27 700.620   3
  -4  -2  -4 213307. 5242.59   3
  -4  -2  -4 217368. 6522.64   2
  -5  -2  -4 6851.91 1290.65   2
  -5  -2  -4 5732.31 965.761   3
  -6  -2  -4 56175.7 3002.68   3
  -7  -2  -4 7172.82 1140.39   3
  -8  -2  -4 94995.4 4245.18   3
  -9  -2  -4 8818.59 1419.94   3
 -10  -2  -4 115347. 5162.83   3
 -11  -2  -4 31268.0 1487.89   5
 -11  -2  -4 31861.5 2879.48   3
 -11  -2  -4 31190.3 1817.83   8
 -12  -2  -4 27157.5 1379.58   5
 -12  -2  -4 26795.6 2735.68   3
 -12  -2  -4 27386.9 1768.92   8
 -13  -2  -4 52961.8 2497.22   8
 -13  -2  -4 52186.1 1866.30   5
 -14  -2  -4 8659.33 1076.45   8
 -15  -2  -4 31756.9 1982.20   8
 -16  -2  -4-263.901 428.051   8
 -17  -2  -4 25975.1 1743.00   8
 -18  -2  -4 6211.35 863.549   8
 -19  -2  -4 11622.8 1049.75   8
 -20  -2  -4 9864.68 872.782   8
 -21  -2  -4 8688.45 699.665   8
 -21   2  -4 7230.38 588.123   4
 -22  -3   4 28567.6 1131.07   8
 -21  -3   4 679.539 278.502   8
 -20  -3   4 13702.9 1021.74   8
 -19  -3   4 11016.7 978.559   8
 -18  -3   4 5883.06 773.551   8
 -17  -3   4 28989.6 1700.13   8
 -16  -3   4 14808.3 1264.75   8
 -16  -3   4 14226.2 1083.89   5
 -15  -3   4 30222.5 1643.60   5
 -15  -3   4 30861.0 1782.80   8
 -14  -3   4 1960.77 523.648   8
 -14  -3   4 1877.53 524.576   5
 -13  -3   4 59631.8 2445.38   5
 -13  -3   4 58879.8 2421.62   8
 -12  -3   4 20588.9 1489.55   5
 -12  -3   4 20959.0 2482.73   3
 -12  -3   4 19360.5 1383.21   8
  12  -3  -4 20672.4 3178.38   2
 -11  -3   4 51962.2 2314.92   5
 -11  -3   4 52194.8 3899.44   3
 -11  -3   4 48968.6 2104.55   8
  11  -3  -4 48846.3 4668.98   2
  10  -3  -4 59100.7 5003.98   2
 -10  -3   4 68113.5 4358.68   3
  -9  -3   4 6118.77 1378.75   3
   9  -3  -4 6633.95 1612.44   2
  -9  -3   4 8711.52 1005.97   6
  -8  -3   4 62056.8 4110.01   3
   8  -3  -4 63505.3 4828.35   2
   7  -3  -4 9460.77 1872.58   2
  -7  -3   4 8997.37 1570.65   3
   6  -3  -4 58610.0 4354.58   2
  -6  -3   4 54437.2 3731.78   3
   5  -3  -4 1608.35 740.613   2
  -5  -3   4 2033.38 790.634   3
   4  -3  -4 78137.6 4841.92   2
   3  -3  -4 4789.88 1243.32   2
   2  -3  -4 44170.3 3364.75   2
   1  -3  -4 2250.38 888.534   2
   0  -3  -4 19890.7 2191.86   2
  -1  -3  -4 9113.54 1535.43   2
  -2  -3  -4 39530.9 3107.16   2
  -2  -3  -4 39476.7 2448.02   3
  -3  -3  -4 28058.0 2628.72   2
  -3  -3  -4 26612.6 2141.60   3
  -4  -3  -4 6232.58 1349.56   2
  -4  -3  -4 7347.02 1186.60   3
  -5  -3  -4 113425. 4691.24   3
  -6  -3  -4 944.285 346.950   5
  -6  -3  -4 1335.30 624.229   3
  -7  -3  -4 141415. 3513.17   5
  -7  -3  -4 129201. 5381.21   3
  -7  -3  -4 128716. 3494.34   6
  -8  -3  -4 784.563 410.223   5
  -8  -3  -4 552.520 387.628   6
  -8  -3  -4 1055.32 573.431   3
  -9  -3  -4 1443.01 442.005   5
  -9  -3  -4 1509.97 811.743   3
  -9  -3  -4 1909.73 539.079   6
 -10  -3  -4 44333.9 1983.90   5
 -11  -3  -4 80.2843 286.342   5
 -12  -3  -4 94702.0 2722.94   5
 -13  -3  -4 50423.4 1932.96   5
 -14  -3  -4 57577.7 1959.55   5
 -14  -3  -4 55206.9 2360.26   8
 -15  -3  -4 11440.7 836.965   5
 -15  -3  -4 10822.6 1040.16   8
 -16  -3  -4 22917.0 1397.03   8
 -17   3  -4 1464.94 355.789   4
 -17  -3  -4 1938.74 434.861   8
 -18   3  -4 14559.4 848.347   4
  18  -4  -4 9919.11 791.705   6
 -17  -4   4 1391.58 303.481   5
  17  -4  -4 1867.34 464.361   6
  16  -4  -4 6430.79 852.067   6
 -16  -4   4 4988.16 569.080   5
  15  -4  -4 19.9869 410.316   6
 -15  -4   4-864.380 447.802   5
 -14  -4   4 4055.04 647.692   5
  14  -4  -4 3638.71 819.749   6
 -13  -4   4 2317.92 592.567   5
 -12  -4   4 6292.25 872.944   5
  11  -4  -4 2659.11 803.201   6
 -11  -4   4 2897.51 650.468   5
 -10  -4   4 22869.8 1601.97   5
  10  -4  -4 20153.6 1821.79   6
  -9  -4   4 47425.9 2308.92   5
  -9  -4   4 52179.6 2409.27   6
   9  -4  -4 47415.2 2711.37   6
  -8  -4   4 45807.7 2311.18   5
   8  -4  -4 42643.5 2535.54   6
  -8  -4   4 43051.6 2231.60   6
  -7  -4   4 58807.0 2609.24   5
  -7  -4   4 60784.9 2601.77   6
   7  -4  -4 57263.8 2888.86   6
   6  -4  -4 6940.71 1072.86   6
  -6  -4   4 8266.56 1047.64   5
  -6  -4   4 8669.96 1027.62   6
  -5  -4   4 24664.5 1727.44   5
  -5  -4   4 27272.9 1736.50   6
   5  -4  -4 25007.2 1884.75   6
   4  -4  -4 931.774 533.299   6
  -4  -4   4 550.083 516.083   3
  -4  -4   4 1823.02 590.749   6
  -3  -4   4 63203.3 4512.37   3
  -3  -4   4 62463.7 2529.48   6
   3  -4  -4 58540.0 2799.90   6
   2  -4  -4 2856.36 773.146   6
  -2  -4   4 2482.16 995.121   3
  -2  -4   4 3292.43 811.154   6
   1  -4  -4 46460.9 2414.16   6
  -1  -4   4 47422.9 2212.18   6
  -1  -4   4 45759.4 3844.50   3
   0  -4  -4 33178.0 1601.66   5
   0  -4  -4 32680.5 2032.32   6
   0  -4   4 33348.0 1818.26   6
  -1  -4  -4 25724.9 1475.54   5
   1  -4   4 23599.7 1532.61   6
  -1  -4  -4 24068.0 1723.15   6
  -2  -4  -4 53105.9 2518.47   6
  -2  -4  -4 56279.2 2182.13   5
  -3  -4  -4 18353.9 1301.99   5
  -3  -4  -4 17039.9 1466.41   6
  -4  -4  -4 27104.1 1572.26   5
  -4  -4  -4 23479.0 1684.56   6
  -5  -4  -4 3003.28 641.987   5
  -5  -4  -4 2515.46 671.481   6
  -6  -4  -4 32363.0 1757.53   5
  -6  -4  -4 29018.6 1863.05   6
  -7  -4  -4 130.595 366.280   5
  -7  -4  -4 311.254 447.842   6
  -8  -4  -4 11437.6 1055.17   5
  -8  -4  -4 10305.6 1113.03   6
  -9  -4  -4 3631.22 657.548   5
 -10  -4  -4 8525.67 895.706   5
 -11  -4  -4 22217.4 1298.05   5
 -12  -4  -4 2664.19 491.369   5
 -13  -4  -4 8482.03 747.400   5
 -14  -4  -4-15.8348 240.232   5
 -15  -4  -4 3340.88 394.143   5
 -15  -5   4 16545.6 669.446   5
 -14  -5   4 5041.51 463.492   5
  14  -5  -4 6835.06 598.225   6
 -13  -5   4 1967.50 358.705   5
  13  -5  -4 3084.63 536.792   6
  12  -5  -4 1412.88 489.122   6
 -12  -5   4 792.344 281.368   5
  11  -5  -4 6945.69 1017.30   6
 -11  -5   4 7155.96 725.109   5
 -10  -5   4 8853.63 844.495   5
  10  -5  -4 8937.92 1111.86   6
  -9  -5   4 9303.32 906.719   5
   9  -5  -4 8980.04 1083.15   6
   8  -5  -4 384.815 487.548   6
  -8  -5   4 294.945 373.258   5
   7  -5  -4 2976.59 758.379   6
  -7  -5   4 2498.63 570.819   5
  -6  -5   4 5449.62 749.093   5
  -6  -5   4 5570.44 796.687   6
   6  -5  -4 6866.05 973.166   6
   5  -5  -4 7957.72 1056.14   6
  -5  -5   4 8397.68 923.155   6
  -5  -5   4 8279.23 909.617   5
  -4  -5   4 10115.7 1003.42   6
  -4  -5   4 9760.58 958.172   5
   4  -5  -4 9874.08 1107.45   6
  -3  -5   4 2307.69 539.386   5
  -3  -5   4 2656.78 585.089   6
   3  -5  -4 2470.32 707.355   6
  -2  -5   4 1378.13 456.057   5
  -2  -5   4 1127.65 443.569   6
   2  -5  -4 1806.35 675.086   6
  -1  -5   4 30620.4 1601.18   6
   1  -5  -4 32952.0 1955.47   6
   0  -5   4 8808.26 991.072   6
   0  -5  -4 7092.94 962.868   6
  -1  -5  -4 6461.88 646.953   5
   1  -5   4 8341.92 854.168   6
  -1  -5  -4 7647.44 982.592   6
  -2  -5  -4 2867.97 468.733   5
  -2  -5  -4 3391.12 738.278   6
  -3  -5  -4 7588.96 733.758   5
  -3  -5  -4 7487.26 960.133   6
  -4  -5  -4 664.391 499.318   6
  -4  -5  -4 466.306 322.890   5
  -5  -5  -4 23166.4 1235.32   5
  -5  -5  -4 22832.7 1440.09   6
  -6  -5  -4 1260.96 522.270   6
  -6  -5  -4 821.491 353.391   5
  -7  -5  -4 14458.9 957.281   5
  -8  -5  -4-46.3412 277.444   5
  -9  -5  -4 4228.13 524.792   5
 -10  -5  -4 530.448 281.921   5
 -11  -5  -4 517.649 220.521   5
 -12  -5  -4 2647.44 318.464   5
   5  -6  -4 3821.51 511.148   6
   4  -6  -4 651.748 310.140   6
   3  -6  -4 143.321 251.438   6
   2  -6  -4 320.487 260.979   6
   1  -6  -4 2834.41 422.811   6
   0  -6  -4 1561.08 343.851   6
  -1  -6  -4 4986.80 501.781   6
 -24   0   5-136.996 198.821   8
 -23   0   5-294.412 258.823   8
 -22   0   5 334.568 305.630   8
 -21   0   5 93.1624 284.335   8
 -20   0   5-109.832 274.540   8
 -19   0   5-104.231 346.876   8
 -18   0   5 216.461 311.379   8
 -17   0   5 440.633 323.202   8
  17   0  -5-401.450 728.763   1
  16   0  -5-155.042 678.004   1
 -16   0   5 11.4464 229.266   8
  15   0  -5-432.445 848.403   1
  14   0  -5-281.850 668.816   1
  13   0  -5-130.215 555.327   1
  12   0  -5 79.8296 533.386   1
 -12   0   5 58.8714 250.902   3
  11   0  -5-186.965 547.144   1
 -11   0   5-63.1434 236.872   3
  10   0  -5 118.792 493.237   1
 -10   0   5 80.5741 226.556   3
   9   0  -5-31.6300 503.438   1
  -9   0   5-9.71245 208.844   3
  -8   0   5 67.7487 194.648   3
   8   0  -5 5.20241 429.666   1
  -7   0   5 17.2358 202.690   3
   7   0  -5 325.651 507.375   1
  -6   0   5 101.102 218.007   3
   6   0  -5-182.451 416.671   1
  -5   0   5-63.8601 206.121   3
   5   0  -5 67.0608 348.347   1
   4   0  -5-119.353 393.257   2
   4   0  -5 55.0509 325.863   1
   3   0  -5-182.757 391.205   2
   2   0  -5 55.3247 379.873   2
   1   0  -5-39.7582 427.092   2
   0   0  -5 306.317 436.765   2
   0   0  -5 202.208 337.013   3
  -1   0  -5-54.3198 403.171   2
  -1   0  -5 149.244 390.190   3
  -2   0  -5-12.7421 366.978   3
  -2   0  -5-121.402 419.891   2
  -3   0  -5 152.826 559.392   2
  -3   0  -5-2.08068 378.508   3
  -4   0  -5-138.752 420.221   3
  -5   0  -5-123.625 428.137   3
  -6   0  -5 95.1906 465.014   3
  -7   0  -5 234.481 523.925   3
  -8   0  -5 158.874 543.140   3
  -9   0  -5 173.780 501.879   3
 -10   0  -5-63.6005 474.451   3
 -11   0  -5 35.9313 504.557   3
 -12   0  -5 302.191 486.414   3
 -12   0  -5 44.4170 344.642   8
 -13   0  -5 29.8766 324.369   8
 -13   0  -5-189.515 506.829   3
 -14   0  -5 1117.16 758.255   3
 -14   0  -5-154.644 401.017   8
 -15   0  -5 10.6745 379.306   8
 -16   0  -5 74.4610 364.819   8
 -17   0  -5-285.902 390.542   8
 -18   0  -5-24.0424 354.380   8
 -19   0  -5 56.3663 334.881   8
 -20   0  -5 68.9979 283.682   8
 -21   0  -5-381.897 242.644   4
 -25  -1   5-293.988 205.322   8
 -24  -1   5-135.218 259.026   8
 -23  -1   5 32.3064 267.998   8
 -22  -1   5 444.846 322.736   8
 -21  -1   5-188.172 357.626   8
 -20  -1   5 490.669 373.670   8
 -19  -1   5 11696.4 1165.81   8
 -18  -1   5 5364.55 817.843   8
 -17  -1   5 2561.23 598.922   8
  17   1  -5 1658.62 847.735   1
  17  -1  -5 1515.66 841.290   1
  16   1  -5 14463.2 2407.06   1
  16  -1  -5 12566.4 2251.20   1
 -16  -1   5 14946.0 1251.99   8
 -15  -1   5 8799.46 934.595   8
  15  -1  -5 7589.69 1701.79   1
 -15  -1   5 8499.14 1308.07   3
  15   1  -5 8612.50 1811.26   1
  14   1  -5-205.545 494.871   1
  14  -1  -5 295.618 495.669   1
 -14  -1   5-55.8870 332.459   3
  13   1  -5 7227.57 1480.77   1
  13  -1  -5 6785.54 1471.80   1
 -13  -1   5 7910.22 1211.72   3
  12   1  -5 12301.0 1846.30   1
 -12  -1   5 12497.8 1429.82   3
  12  -1  -5 13517.7 1943.48   1
 -11  -1   5 2322.18 649.536   3
  11   1  -5 2314.89 842.543   1
  11  -1  -5 2910.96 882.123   1
  10  -1  -5 1029.47 595.863   1
 -10  -1   5 1744.60 580.498   3
  10   1  -5 1351.89 594.164   1
   9   1  -5 52303.0 3151.18   1
   9  -1  -5 52130.9 3164.91   1
  -9  -1   5 52320.0 2584.43   3
   8   1  -5 152539. 5046.12   1
   8  -1  -5 147178. 4961.65   1
  -8  -1   5 152668. 4281.95   3
  -7  -1   5 24251.8 1653.43   3
   7  -1  -5 24175.4 1907.35   1
   7   1  -5 23909.2 1903.08   1
   6   1  -5 26754.0 1854.13   1
   6  -1  -5 26517.5 1844.85   1
   5   1  -5 140283. 3900.26   1
   5  -1  -5 139567. 3896.68   1
   4   1  -5 25690.0 1126.04   2
   4  -1  -5 25498.5 2015.34   2
   3   1  -5 89455.7 1769.35   2
   3  -1  -5 89554.6 3713.77   2
   2   1  -5 187983. 2531.41   2
   2  -1  -5 176711. 2203.77   3
   2  -1  -5 185464. 5235.40   2
   1  -1  -5 160.793 440.982   2
   1  -1  -5 86.9971 172.031   3
   0  -1  -5 269.004 437.218   2
   0  -1  -5 107.200 202.723   3
  -1  -1  -5 7538.71 1122.60   2
  -1  -1  -5 8377.23 756.838   3
  -2  -1  -5 23772.8 1914.30   2
  -2  -1  -5 24460.5 1409.23   3
  -3  -1  -5 229.250 525.405   2
  -3  -1  -5 226.658 340.453   3
  -4  -1  -5 5360.67 833.133   3
  -4  -1  -5 5937.59 1145.00   2
  -5  -1  -5 6589.81 956.130   3
  -5  -1  -5 8023.37 1363.82   2
  -6  -1  -5 3160.09 744.258   3
  -7  -1  -5 704.396 484.836   3
  -8  -1  -5 9496.24 1383.22   3
  -9  -1  -5 7547.17 1293.91   3
 -10  -1  -5 4048.40 1090.97   3
 -11  -1  -5 348.821 411.338   3
 -12  -1  -5 1126.28 467.859   8
 -12   1  -5 996.207 411.526   8
 -12  -1  -5 1572.35 785.434   3
 -13   1  -5-12.9720 323.482   8
 -13  -1  -5 348.848 365.589   8
 -13  -1  -5 717.205 598.023   3
 -14   1  -5-25.8332 329.048   8
 -14  -1  -5-70.4079 356.358   8
 -15   1  -5 2650.91 622.604   8
 -15  -1  -5 2844.86 674.690   8
 -16   1  -5 1623.13 528.456   8
 -16  -1  -5 1567.47 579.608   8
 -17  -1  -5 2223.17 618.051   8
 -17   1  -5 2225.57 559.576   8
 -18  -1  -5 2973.20 681.557   8
 -19  -1  -5 2149.44 549.582   8
 -20  -1  -5 1954.77 493.807   8
 -21   1  -5 267.076 230.329   4
 -21  -1  -5 306.825 253.261   8
 -22   1  -5 1032.41 234.535   4
 -24  -2   5 1675.60 325.472   8
 -23  -2   5 1797.35 404.255   8
 -22  -2   5 13565.0 1065.92   8
 -21  -2   5 3685.32 666.601   8
 -20  -2   5 7675.78 929.012   8
 -19  -2   5 668.031 408.584   8
 -18  -2   5 12708.5 1216.65   8
 -17  -2   5 909.155 437.374   8
 -16  -2   5 13088.0 1225.81   8
 -15  -2   5 13469.7 1215.88   8
 -15  -2   5 12860.7 1852.95   3
 -14  -2   5 1178.44 703.638   3
 -14  -2   5 486.357 353.184   8
  13   2  -5 42064.2 3500.74   1
 -13  -2   5 43125.9 3196.95   3
 -13  -2   5 45680.5 2082.62   8
 -12  -2   5 1754.26 723.461   3
  12   2  -5 1473.31 656.235   1
  12  -2  -5 2137.27 820.389   1
  11   2  -5 9652.82 1541.38   1
 -11  -2   5 8983.09 1417.44   3
  11  -2  -5 8751.17 1489.74   1
 -10  -2   5 3460.15 895.045   3
  10  -2  -5 3241.63 848.816   1
  10   2  -5 3197.72 851.635   1
   9   2  -5 322.209 460.456   1
  -9  -2   5-112.876 407.364   3
   9  -2  -5 74.7011 296.273   1
   8  -2  -5 1582.17 537.710   1
  -8  -2   5 2324.80 756.645   3
   8   2  -5 1875.62 575.374   1
  -7  -2   5 9855.53 1366.07   3
   7  -2  -5 10122.7 1718.36   2
   6  -2  -5 1358.99 570.955   2
   5  -2  -5 7342.44 1402.21   2
   4  -2  -5 337.897 605.636   2
   3  -2  -5 2821.78 941.711   2
   2  -2  -5 29073.0 2576.55   2
   1  -2  -5 33447.1 1446.39   3
   1  -2  -5 35452.9 2783.26   2
   0  -2  -5-894.639 723.653   2
   0  -2  -5 114.621 222.391   3
  -1  -2  -5 83997.9 2818.59   3
  -1  -2  -5 89030.3 4184.68   2
  -2  -2  -5 1103.75 600.529   2
  -2  -2  -5 1188.02 446.519   3
  -3  -2  -5 962.377 553.288   2
  -3  -2  -5 758.286 338.960   3
  -4  -2  -5 880.712 663.653   2
  -4  -2  -5 313.884 284.399   3
  -5  -2  -5 19595.5 1724.39   3
  -5  -2  -5 19847.4 2226.10   2
  -6  -2  -5 2357.21 716.992   3
  -7  -2  -5 1393.94 599.450   3
  -8  -2  -5 6939.79 1243.72   3
  -9  -2  -5 22142.9 2324.88   3
 -10  -2  -5 22.3477 272.286   5
 -10  -2  -5 99.8456 299.033   8
 -10  -2  -5 148.029 528.367   3
 -11  -2  -5 81112.8 2400.70   5
 -11  -2  -5 83583.1 4802.63   3
 -11  -2  -5 81522.2 3038.17   8
 -12  -2  -5 1856.95 804.451   3
 -12  -2  -5 1829.82 421.684   5
 -12  -2  -5 2797.70 660.377   8
 -13  -2  -5 16333.6 1106.39   5
 -13  -2  -5 19107.0 1561.82   8
 -14  -2  -5-270.642 393.797   8
 -15  -2  -5 362.248 429.472   8
 -16  -2  -5 13681.3 1321.27   8
 -17  -2  -5 1736.90 542.878   8
 -18  -2  -5 6366.00 827.864   8
 -19  -2  -5 445.501 327.720   8
 -20   2  -5 1472.26 324.875   4
 -20  -2  -5 2227.37 411.447   8
 -22  -3   5 160.497 188.464   8
 -21  -3   5 986.691 329.458   8
 -20  -3   5-283.505 275.747   8
 -19  -3   5 11832.3 1017.57   8
 -18  -3   5 1497.56 437.837   8
 -17  -3   5 14067.7 1194.83   8
 -16  -3   5-17.1975 310.535   8
 -16  -3   5 308.944 318.646   5
 -15  -3   5 7382.77 851.565   5
 -15  -3   5 7890.81 938.582   8
 -14  -3   5 1249.52 408.275   8
 -14  -3   5 391.165 416.180   5
 -13  -3   5 3763.36 664.608   5
 -13  -3   5 3804.07 656.140   8
 -12  -3   5 21487.6 1528.31   5
 -12  -3   5 23208.2 1502.74   8
 -12  -3   5 22127.1 2601.15   3
  12  -3  -5 22301.3 3296.72   2
 -11  -3   5 14994.2 2138.84   3
  11  -3  -5 10023.3 2124.69   2
 -11  -3   5 12400.9 1077.08   8
 -10  -3   5 23384.6 2607.34   3
  10  -3  -5 23127.3 3229.68   2
   9  -3  -5-241.562 602.539   2
  -9  -3   5 671.076 616.699   3
  -9  -3   5 638.856 444.283   6
   8  -3  -5 36971.3 3859.50   2
  -8  -3   5 36193.7 3211.40   3
  -7  -3   5 5417.02 1285.20   3
   7  -3  -5 5533.40 1506.71   2
   6  -3  -5 47349.2 4060.45   2
  -6  -3   5 45008.9 3432.37   3
   5  -3  -5 536.542 636.653   2
   4  -3  -5 5739.83 1397.25   2
   3  -3  -5 7484.52 1572.68   2
   2  -3  -5 19799.0 2392.97   2
   1  -3  -5 51039.2 3682.74   2
   0  -3  -5 2786.77 961.806   2
  -1  -3  -5 48083.9 3561.54   2
  -2  -3  -5 7790.09 1528.17   2
  -3  -3  -5 29045.9 2844.53   2
  -4  -3  -5 749.028 623.414   2
  -4  -3  -5 1892.93 684.484   3
  -5  -3  -5 10970.2 972.605   5
  -5  -3  -5 11198.0 1489.50   3
  -6  -3  -5 19909.3 1324.90   5
  -6  -3  -5 18108.9 1317.42   6
  -6  -3  -5 18043.1 1964.54   3
  -7  -3  -5 16406.9 1267.43   6
  -7  -3  -5 19423.5 1320.17   5
  -7  -3  -5 17451.1 2027.34   3
  -8  -3  -5 21100.6 1394.29   5
  -8  -3  -5 19628.5 2243.40   3
  -8  -3  -5 17499.6 1330.75   6
  -9  -3  -5 12219.1 1869.98   3
  -9  -3  -5 13818.7 1119.84   5
 -10  -3  -5 5315.44 750.792   5
 -11  -3  -5 8592.49 868.794   5
 -12  -3  -5 7327.56 799.882   5
 -13  -3  -5 11776.2 949.219   5
 -14  -3  -5 425.471 316.016   5
 -14  -3  -5 223.982 265.167   8
 -15   3  -5 32.6168 253.006   4
 -15  -3  -5 165.862 252.891   5
 -15  -3  -5 107.014 240.505   8
 -16   3  -5 3846.61 550.341   4
 -16  -3  -5 4471.35 608.056   8
 -17   3  -5 3066.51 424.762   4
  19  -4  -5 432.335 221.536   6
  18  -4  -5 4322.22 574.487   6
 -17  -4   5-769.071 329.607   5
  17  -4  -5-65.5241 353.260   6
 -16  -4   5 8545.86 737.660   5
  16  -4  -5 9403.42 1055.57   6
 -15  -4   5 4506.70 634.992   5
  15  -4  -5 4663.36 855.561   6
 -14  -4   5 18884.6 1280.36   5
 -13  -4   5 11967.6 1101.75   5
 -12  -4   5 14052.0 1241.97   5
 -11  -4   5 3669.03 733.229   5
  10  -4  -5 38.6666 615.463   6
 -10  -4   5-264.143 560.626   5
  -9  -4   5 75896.3 2955.11   5
   9  -4  -5 71629.7 3311.40   6
   8  -4  -5-59.9918 554.636   6
  -8  -4   5 472.956 501.055   5
  -8  -4   5 1343.93 581.356   6
   7  -4  -5 55269.0 2828.48   6
  -7  -4   5 55476.3 2558.91   5
  -7  -4   5 59451.9 2495.17   6
  -6  -4   5 10643.1 1112.98   6
   6  -4  -5 10064.1 1270.79   6
   5  -4  -5 496.758 437.917   6
  -5  -4   5 814.345 437.112   6
   4  -4  -5 21686.9 1777.50   6
  -4  -4   5 22399.1 1514.90   6
   3  -4  -5 1373.94 691.095   6
  -3  -4   5 1398.77 606.413   6
  -2  -4   5 59188.3 4465.16   3
  -2  -4   5 58757.6 2371.58   6
   2  -4  -5 60117.3 2784.28   6
   1  -4  -5 3084.01 790.610   6
   0  -4  -5 25859.2 1405.78   5
   0  -4  -5 25230.4 1812.45   6
  -1  -4  -5 870.205 435.754   5
  -1  -4  -5 184.415 443.839   6
  -2  -4  -5 65251.7 2316.88   5
  -2  -4  -5 58306.1 2604.58   6
  -3  -4  -5 2290.44 558.144   5
  -3  -4  -5 1432.19 534.481   6
  -4  -4  -5 54762.0 2184.13   5
  -4  -4  -5 48513.6 2361.81   6
  -5  -4  -5 179.282 363.683   5
  -5  -4  -5 471.509 465.008   6
  -6  -4  -5 15055.0 1322.56   6
  -6  -4  -5 16322.6 1231.47   5
  -7  -4  -5 5373.11 777.035   5
  -7  -4  -5 5096.18 799.703   6
  -8  -4  -5 6780.15 831.150   5
  -8  -4  -5 5874.49 809.067   6
  -9  -4  -5 3208.25 592.928   5
 -10  -4  -5 1270.64 456.290   5
 -11  -4  -5 8171.72 795.614   5
 -12  -4  -5 18.3038 282.376   5
 -13  -4  -5 4557.12 553.938   5
 -14  -4  -5 466.703 224.676   5
 -15  -4  -5 4521.06 408.880   5
 -15  -5   5 988.646 218.613   5
 -14  -5   5 4232.79 431.447   5
  14  -5  -5 5692.21 578.453   6
  13  -5  -5 2360.29 490.745   6
 -13  -5   5 1787.72 353.221   5
 -12  -5   5 19092.6 1058.33   5
  12  -5  -5 22700.6 1482.45   6
  11  -5  -5 5278.01 1023.93   6
 -11  -5   5 4639.11 622.101   5
 -10  -5   5 10082.3 900.295   5
  10  -5  -5 10965.7 1265.27   6
   9  -5  -5 1707.97 645.242   6
  -9  -5   5 1011.45 451.043   5
   8  -5  -5 5606.70 932.058   6
  -8  -5   5 5581.54 745.583   5
   7  -5  -5 835.083 543.054   6
  -7  -5   5 271.839 404.651   5
  -6  -5   5 10926.5 1050.63   5
   6  -5  -5 13289.4 1303.11   6
   5  -5  -5 8323.25 1002.54   6
  -5  -5   5 9066.47 960.100   5
  -5  -5   5 8245.43 875.348   6
   4  -5  -5 21307.1 1567.27   6
  -4  -5   5 19842.3 1345.05   5
  -4  -5   5 20385.0 1301.52   6
  -3  -5   5 9228.65 913.961   5
  -3  -5   5 10108.4 950.798   6
   3  -5  -5 9520.25 1103.61   6
  -2  -5   5 7825.21 820.243   5
  -2  -5   5 8874.85 842.867   6
   2  -5  -5 7595.51 1033.01   6
  -1  -5   5 6849.20 790.163   6
   1  -5  -5 6484.61 924.689   6
   0  -5  -5 1534.45 616.008   6
  -1  -5  -5 23348.7 1178.36   5
  -1  -5  -5 29048.9 1748.05   6
  -2  -5  -5 3859.38 520.058   5
  -2  -5  -5 3993.40 772.270   6
  -3  -5  -5 8250.43 737.063   5
  -3  -5  -5 9118.04 991.818   6
  -4  -5  -5-186.959 270.845   5
  -4  -5  -5 148.633 388.577   6
  -5  -5  -5 3003.88 496.834   5
  -5  -5  -5 3110.88 607.763   6
  -6  -5  -5 5686.21 626.568   5
  -6  -5  -5 5333.93 723.467   6
  -7  -5  -5 11539.5 832.481   5
  -8  -5  -5 9899.16 742.162   5
  -9  -5  -5 2518.23 398.326   5
 -10  -5  -5 12484.7 731.009   5
 -11  -5  -5 91.8026 171.308   5
   4  -6  -5 2904.39 413.211   6
   3  -6  -5 8831.81 641.984   6
   2  -6  -5 8380.13 608.707   6
   1  -6  -5 2968.72 415.525   6
   0  -6  -5 8196.58 577.089   6
 -24   0   6 33658.5 1338.86   8
 -23   0   6 792.685 299.042   8
 -22   0   6 4858.95 677.395   8
 -21   0   6 856.397 363.226   8
 -20   0   6 5095.53 730.367   8
 -19   0   6 161221. 3991.70   8
 -18   0   6 135584. 3649.55   8
  17   0  -6 139914. 7643.19   1
 -17   0   6 135348. 3575.95   8
  16   0  -6 110946. 6605.82   1
 -16   0   6 108394. 3119.15   8
  15   0  -6 55382.2 4481.74   1
  14   0  -6 135.288 536.875   1
  13   0  -6 45413.6 3629.25   1
  12   0  -6 37921.4 3188.77   1
  11   0  -6 128192. 5577.28   1
  10   0  -6 961.378 656.241   1
 -10   0   6 924.233 327.191   3
   9   0  -6 153364. 5500.23   1
  -9   0   6 151632. 3224.22   3
  -8   0   6 53787.4 1794.27   3
   8   0  -6 54507.0 3104.43   1
   7   0  -6 200652. 5602.27   1
  -7   0   6 210506. 3363.87   3
  -6   0   6 94343.5 2181.50   3
   6   0  -6 86242.4 3388.21   1
   5   0  -6 53511.7 2656.86   2
   4   0  -6 1753.74 601.799   2
   3   0  -6 70512.5 2885.07   2
   2   0  -6 48308.8 2436.23   2
   1   0  -6 6253.31 940.369   2
   0   0  -6 706258. 8877.21   2
  -1   0  -6 122980. 3696.78   3
  -1   0  -6 130330. 3997.11   2
  -2   0  -6 199313. 5098.71   2
  -2   0  -6 189170. 4667.48   3
  -3   0  -6 79602.3 3484.03   2
  -3   0  -6 80385.2 3242.31   3
  -4   0  -6 89047.0 3629.95   3
  -5   0  -6 246217. 6337.98   3
  -6   0  -6 153813. 5281.99   3
  -7   0  -6 151555. 5542.76   3
  -8   0  -6 33605.3 2819.86   3
  -9   0  -6 120209. 5525.25   3
 -10   0  -6 35062.3 3184.38   3
 -11   0  -6 94741.9 5375.99   3
 -11   0  -6 94064.2 3274.25   8
 -12   0  -6 65824.6 4689.81   3
 -12   0  -6 67579.1 2882.02   8
 -13   0  -6 12452.3 1322.60   8
 -13   0  -6 12472.7 2180.02   3
 -14   0  -6 6362.14 978.154   8
 -15   0  -6 976.372 535.642   8
 -16   0  -6 17541.6 1539.09   8
 -17   0  -6 1826.75 601.419   8
 -18   0  -6 61681.2 2598.65   8
 -19   0  -6-59.2403 296.252   8
 -20   0  -6 16175.0 1023.98   4
 -21   0  -6 264.129 173.501   4
 -25  -1   6 7963.87 610.759   8
 -24  -1   6 5731.80 634.766   8
 -23  -1   6 32197.7 1595.77   8
 -22  -1   6 3571.99 636.499   8
 -21  -1   6 35344.6 1893.01   8
 -20  -1   6 856.873 419.213   8
 -19  -1   6 23723.4 1621.97   8
 -18  -1   6 14161.2 1270.74   8
  17   1  -6 41040.3 4130.54   1
  17  -1  -6 42155.6 4199.60   1
 -17  -1   6 42498.8 2132.04   8
 -16  -1   6 32954.4 1821.86   8
  16  -1  -6 31635.1 3531.55   1
  16   1  -6 32018.2 3521.03   1
  15   1  -6 45459.4 4054.44   1
  15  -1  -6 46393.9 4119.98   1
 -15  -1   6 47048.9 2124.48   8
  14  -1  -6 87000.8 5364.20   1
  14   1  -6 90202.1 5410.11   1
 -14  -1   6 93206.0 4107.93   3
  13   1  -6 18606.8 2375.63   1
  13  -1  -6 18289.0 2368.94   1
 -13  -1   6 18668.6 1819.43   3
  12   1  -6 130546. 5950.32   1
  12  -1  -6 127822. 5904.86   1
 -12  -1   6 129497. 4480.03   3
  11  -1  -6 23817.4 2451.01   1
 -11  -1   6 24984.3 1949.34   3
  11   1  -6 25845.1 2525.28   1
 -10  -1   6 110698. 3892.71   3
  10  -1  -6 104317. 4803.48   1
  10   1  -6 107613. 4869.98   1
  -9  -1   6 84835.9 3343.44   3
   9   1  -6 81656.6 4004.30   1
   9  -1  -6 81054.4 4000.88   1
   8   1  -6 203796. 5897.58   1
   8  -1  -6 196457. 5820.66   1
  -8  -1   6 206917. 5031.22   3
  -7  -1   6 26174.7 1767.17   3
   7   1  -6 23558.1 1883.45   1
   7  -1  -6 25061.4 1940.07   1
   6   1  -6 149327. 4457.10   1
   6  -1  -6 152302. 5542.24   2
   5  -1  -6 100804. 4331.35   2
   5   1  -6 97221.6 2701.08   2
   4  -1  -6 26313.0 2239.31   2
   4   1  -6 24590.6 1251.86   2
   3   1  -6 453929. 4812.50   2
   3  -1  -6 457730. 8899.55   2
   2  -1  -6 12731.3 728.041   3
   2   1  -6 13716.6 885.679   2
   2  -1  -6 13182.4 1593.67   2
   1  -1  -6 119831. 4554.48   2
   1  -1  -6 117531. 2591.57   3
   0  -1  -6 50740.3 1864.13   3
   0  -1  -6 46573.5 2795.15   2
  -1  -1  -6 141781. 3405.65   3
  -1  -1  -6 133523. 4762.45   2
  -2  -1  -6 105270. 4359.86   2
  -2  -1  -6 110855. 3248.41   3
  -3  -1  -6 63171.2 3490.21   2
  -3  -1  -6 64260.6 2646.19   3
  -4  -1  -6 84478.4 3249.89   3
  -4  -1  -6 86799.1 4171.56   2
  -5  -1  -6 107136. 4799.13   2
  -5  -1  -6 104129. 3875.49   3
  -6  -1  -6 249230. 6354.45   3
  -7  -1  -6 32425.6 2491.38   3
  -8  -1  -6 67166.6 3737.11   3
  -9  -1  -6 604.438 481.874   3
 -10  -1  -6 48792.5 3603.66   3
 -11   1  -6 64.2245 358.500   8
 -11  -1  -6 76.6516 302.286   8
 -11  -1  -6 55.3563 513.979   3
 -12  -1  -6 89933.0 5322.86   3
 -12   1  -6 82436.7 3175.27   8
 -12  -1  -6 87816.2 3307.11   8
 -13   1  -6 7161.28 1000.17   8
 -13  -1  -6 8665.18 1092.02   8
 -14   1  -6 25525.9 1832.56   8
 -14  -1  -6 29188.8 1988.04   8
 -15  -1  -6 45754.3 2506.74   8
 -15   1  -6 40298.7 2255.13   8
 -16  -1  -6 14539.7 1403.47   8
 -17  -1  -6 42244.6 1932.59   4
 -17  -1  -6 48222.8 2430.49   8
 -18  -1  -6 1000.88 492.145   8
 -19  -1  -6 17412.3 1270.07   8
 -20   1  -6 250.825 231.781   4
 -21   1  -6 20779.0 979.808   4
 -24  -2   6 12757.8 807.045   8
 -23  -2   6 2827.19 497.897   8
 -22  -2   6 21181.0 1309.65   8
 -21  -2   6-86.3806 382.414   8
 -20  -2   6 44551.4 2123.67   8
 -19  -2   6 5674.47 821.499   8
 -18  -2   6 37359.0 2050.60   8
 -17  -2   6 14603.3 1298.13   8
 -16  -2   6 50999.5 2375.96   8
 -15  -2   6 35053.2 1952.62   8
 -15  -2   6 32399.8 2898.36   3
 -14  -2   6 777.905 465.517   3
 -14  -2   6 438.287 316.382   8
  13   2  -6 31119.0 2974.88   1
 -13  -2   6 33166.3 1805.41   8
 -13  -2   6 28312.9 2618.85   3
  12   2  -6 1043.45 698.645   1
 -12  -2   6 214.885 399.656   3
  12  -2  -6-298.220 402.049   1
 -11  -2   6 112885. 4942.67   3
  11  -2  -6 96802.8 4721.09   1
  11   2  -6 104308. 4893.37   1
  10  -2  -6 2113.98 720.986   1
  10   2  -6 1852.35 658.856   1
 -10  -2   6 2602.20 852.189   3
  -9  -2   6 151258. 5575.17   3
   9  -2  -6 136127. 6712.74   2
  -8  -2   6 76563.0 3858.03   3
   8  -2  -6 70486.7 4651.93   2
   7  -2  -6 47036.1 3698.63   2
  -7  -2   6 48109.6 3027.95   3
   6  -2  -6 128149. 5991.73   2
   5  -2  -6 8699.02 1627.69   2
   4  -2  -6 266687. 8185.03   2
   3  -2  -6 75015.6 4387.95   2
   2  -2  -6 235811. 7627.35   2
   1  -2  -6 94150.4 4716.76   2
   0  -2  -6 84187.6 2546.62   3
   0  -2  -6 86444.0 4417.75   2
  -1  -2  -6 11780.0 1672.88   2
  -1  -2  -6 11032.7 1044.05   3
  -2  -2  -6 64155.8 3870.05   2
  -2  -2  -6 62657.6 2600.49   3
  -3  -2  -6 40451.8 3170.46   2
  -3  -2  -6 42870.1 2342.24   3
  -4  -2  -6 18920.9 2272.65   2
  -4  -2  -6 18965.8 1637.77   3
  -5  -2  -6 78411.9 4593.87   2
  -5  -2  -6 75960.5 3512.08   3
  -6  -2  -6 6094.63 1070.02   3
  -7  -2  -6 35706.5 2685.97   3
  -8  -2  -6 527.578 490.232   3
  -9  -2  -6 49259.8 1881.83   5
  -9  -2  -6 46583.7 3425.06   3
  -9  -2  -6 44584.9 2166.50   8
 -10  -2  -6 43796.1 1770.00   5
 -10  -2  -6 41706.3 3417.72   3
 -10  -2  -6 39525.4 2119.89   8
 -11  -2  -6 156158. 6774.64   3
 -11  -2  -6 150711. 4238.38   8
 -11  -2  -6 150175. 3271.24   5
 -12  -2  -6 11583.8 948.289   5
 -12  -2  -6 11096.5 1215.56   8
 -13  -2  -6 79546.2 2304.72   5
 -13  -2  -6 79941.2 3153.77   8
 -14  -2  -6 1387.62 515.641   8
 -15  -2  -6 10170.5 1141.42   8
 -16  -2  -6 24206.2 1655.77   8
 -17  -2  -6 10285.0 1046.63   8
 -18   2  -6 17003.4 1147.01   4
 -18  -2  -6 18590.0 1261.05   8
 -19   2  -6 119.337 207.946   4
 -20   2  -6 11426.0 695.382   4
 -22  -3   6 671.828 243.681   8
 -21  -3   6 26828.4 1270.54   8
 -20  -3   6 2704.31 499.719   8
 -19  -3   6 19207.7 1287.71   8
 -18  -3   6 7375.53 863.355   8
 -17  -3   6 20103.0 1206.90   5
 -17  -3   6 20443.1 1426.99   8
 -16  -3   6 6616.80 785.206   5
 -16  -3   6 7117.07 874.566   8
 -15  -3   6 3577.96 657.600   5
 -15  -3   6 3491.92 656.697   8
 -14  -3   6 20692.1 1459.93   5
 -14  -3   6 21478.1 1489.30   8
 -13  -3   6 86.2480 415.386   5
 -13  -3   6 155.685 310.504   8
 -12  -3   6 80260.5 2790.72   8
 -12  -3   6 81967.7 4986.14   3
  12  -3  -6 78151.8 6289.14   2
 -11  -3   6 4039.57 1148.48   3
 -11  -3   6 3187.31 588.924   8
  11  -3  -6 1428.52 994.663   2
  10  -3  -6 76262.5 5935.00   2
 -10  -3   6 73852.3 2574.09   8
 -10  -3   6 79204.3 4803.33   3
  -9  -3   6 6343.57 1444.11   3
   9  -3  -6 7055.14 1716.50   2
  -8  -3   6 51888.9 3841.82   3
   8  -3  -6 50565.9 4575.88   2
  -8  -3   6 61016.4 2310.84   6
  -7  -3   6 4172.64 1142.84   3
   7  -3  -6 4021.94 1299.16   2
  -6  -3   6 55754.5 3933.59   3
   6  -3  -6 61521.8 4827.80   2
   5  -3  -6 48077.6 4233.28   2
   4  -3  -6 19643.0 2667.27   2
   3  -3  -6 62244.8 4459.46   2
   2  -3  -6 2897.78 1176.09   2
   1  -3  -6 40098.6 3472.24   2
   0  -3  -6 671.135 594.794   2
  -1  -3  -6 87828.3 5138.93   2
  -2  -3  -6 6491.38 1392.70   2
  -3  -3  -6 94405.5 2653.09   5
  -3  -3  -6 88632.8 5158.72   2
  -4  -3  -6 29334.2 1525.34   5
  -4  -3  -6 25566.5 2870.23   2
  -5  -3  -6 48248.0 1984.57   5
  -6  -3  -6 55681.0 2150.93   5
  -7  -3  -6 7185.39 830.724   5
  -8  -3  -6 31150.1 1650.48   5
  -9  -3  -6 7551.53 870.133   5
 -10  -3  -6 13079.8 1065.55   5
 -11  -3  -6 43655.4 1856.17   5
 -12  -3  -6 21384.7 1270.54   5
 -13  -3  -6 30370.7 1435.22   5
 -13   3  -6 25651.4 1542.95   4
 -14  -3  -6 28569.7 1290.09   5
 -14   3  -6 26136.4 1474.99   4
 -15  -3  -6 5858.36 571.392   5
 -15   3  -6 5608.89 643.301   4
 -16   3  -6 1672.48 359.929   4
  19  -4  -6 614.888 277.557   6
  18  -4  -6 6467.85 706.810   6
  17  -4  -6 5677.85 757.529   6
 -17  -4   6 4354.65 468.186   5
 -16  -4   6 5877.82 624.736   5
  16  -4  -6 7621.03 960.749   6
 -15  -4   6 26692.9 1407.76   5
  15  -4  -6 28459.3 1898.53   6
 -14  -4   6 9427.53 942.722   5
 -13  -4   6 22931.1 1486.83   5
 -12  -4   6 665.592 518.812   5
 -11  -4   6 21330.1 1542.29   5
  11  -4  -6 20985.5 1897.92   6
  10  -4  -6 1792.15 755.801   6
 -10  -4   6 1276.22 557.302   5
  -9  -4   6 49729.1 2407.58   5
   9  -4  -6 49516.7 2784.63   6
   8  -4  -6 624.863 527.211   6
   7  -4  -6 6591.83 1027.23   6
  -7  -4   6 7295.21 913.350   6
  -6  -4   6 8839.83 995.667   6
   6  -4  -6 9117.78 1192.47   6
   5  -4  -6 5945.23 987.244   6
  -5  -4   6 6129.62 877.835   6
  -4  -4   6 88048.5 2830.70   6
   4  -4  -6 90378.4 3484.96   6
   3  -4  -6 1072.82 627.259   6
   3   4  -6 1339.19 557.746   7
   2   4  -6 81195.6 2941.55   7
   2  -4  -6 80770.3 3170.08   6
   1  -4  -6 1392.23 606.802   6
   1  -4  -6 1604.70 448.495   5
   0  -4  -6 23947.1 1344.34   5
   0  -4  -6 21543.2 1611.94   6
  -1  -4  -6 12881.8 1038.34   5
  -1  -4  -6 11095.6 1171.25   6
  -2  -4  -6 8130.54 857.294   5
  -2  -4  -6 6465.30 921.601   6
  -3  -4  -6 42873.2 1876.30   5
  -3  -4  -6 36742.3 2007.34   6
  -4  -4  -6 36115.7 1753.37   5
  -4  -4  -6 29342.8 1836.21   6
  -5  -4  -6 14185.9 1147.73   5
  -5  -4  -6 12697.5 1205.72   6
  -6  -4  -6 5599.59 786.819   5
  -6  -4  -6 4725.14 754.466   6
  -7  -4  -6 5195.63 765.883   5
  -7  -4  -6 4148.19 702.433   6
  -8  -4  -6 338.713 413.774   5
  -9  -4  -6 45717.1 1854.80   5
 -10  -4  -6 7395.56 781.490   5
 -11  -4  -6 29460.1 1365.43   5
 -12  -4  -6-128.453 271.152   5
 -13  -4  -6 3323.52 438.664   5
 -14  -4  -6 7780.19 559.435   5
 -14  -5   6 9812.85 613.014   5
  14  -5  -6 11944.3 820.171   6
  13  -5  -6 539.935 366.080   6
 -13  -5   6-82.3830 241.660   5
 -12  -5   6 6432.33 632.686   5
  12  -5  -6 6774.93 856.557   6
  11  -5  -6 1955.80 682.659   6
 -11  -5   6 1305.17 399.391   5
 -10  -5   6 16774.0 1118.48   5
  10  -5  -6 16070.6 1418.09   6
   9  -5  -6 326.003 472.689   6
  -9  -5   6 280.334 332.888   5
  -8  -5   6 14724.5 1137.50   5
   8  -5  -6 15792.6 1370.37   6
   7  -5  -6 1267.04 601.591   6
  -7  -5   6 378.967 423.174   5
  -6  -5   6 7456.08 891.785   5
   6  -5  -6 7606.76 977.632   6
   5  -5  -6 664.852 462.486   6
  -5  -5   6 1470.05 498.627   5
  -4  -5   6 2676.84 587.806   5
   4  -5  -6 1935.49 559.470   6
  -3  -5   6 7795.39 814.639   5
   3  -5  -6 8536.71 1010.71   6
  -2  -5   6 410.024 357.125   5
   2  -5  -6-213.182 433.536   6
   1  -5  -6 19461.6 1423.06   6
   0  -5  -6 932.646 498.382   6
  -1  -5  -6 8183.24 688.369   5
  -1  -5  -6 9407.95 1013.78   6
  -2  -5  -6 442.629 260.428   5
  -2  -5  -6 1041.82 483.472   6
  -3  -5  -6 1633.52 381.109   5
  -3   5  -6 1731.55 415.135   7
  -3  -5  -6 1438.80 466.076   6
  -4  -5  -6 5865.17 620.680   5
  -4   5  -6 6419.97 721.132   7
  -4  -5  -6 5827.32 712.793   6
  -5  -5  -6 861.082 331.957   5
  -5  -5  -6 982.158 409.465   6
  -6  -5  -6 15038.3 920.893   5
  -7  -5  -6 1856.66 378.443   5
  -8  -5  -6 7092.67 600.169   5
  -9  -5  -6-77.0875 208.496   5
 -10  -5  -6 2887.25 361.776   5
 -23   0   7 194.388 262.650   8
 -22   0   7-235.426 266.360   8
 -21   0   7-204.945 259.933   8
 -20   0   7-120.880 318.742   8
 -19   0   7 38.7174 294.504   8
 -18   0   7-259.886 338.214   8
  17   0  -7-602.326 738.985   1
 -17   0   7 172.245 311.419   8
  16   0  -7-693.215 988.774   1
 -16   0   7-108.449 277.258   8
  15   0  -7 25.4673 554.700   1
  15   0  -7-131.190 419.072   4
  14   0  -7-180.277 539.417   1
  13   0  -7-390.385 686.620   1
  12   0  -7-634.090 738.780   1
  11   0  -7-58.1910 481.578   1
  10   0  -7-165.478 525.763   1
   9   0  -7-5.04159 483.055   1
  -8   0   7 19.6519 197.862   3
   8   0  -7-77.0570 471.551   1
  -7   0   7-70.7418 181.087   3
   7   0  -7-78.6916 432.954   1
  -6   0   7-164.931 212.904   3
   6   0  -7 75.1196 461.022   2
   5   0  -7-46.3722 468.170   2
   4   0  -7 115.171 452.389   2
   3   0  -7-155.924 493.068   2
   2   0  -7 33.4328 454.577   2
   1   0  -7-8.21948 384.434   2
   0   0  -7-435.565 536.597   2
  -1   0  -7 144.174 428.381   2
  -2   0  -7-541.441 536.919   3
  -2   0  -7-396.761 475.993   2
  -3   0  -7 260.863 529.898   3
  -3   0  -7 536.077 556.303   2
  -4   0  -7 138.041 439.145   3
  -5   0  -7 309.076 589.829   3
  -6   0  -7 338.382 552.721   3
  -7   0  -7-45.3876 486.738   3
  -8   0  -7 124.919 522.110   3
  -9   0  -7 599.426 724.249   3
 -10   0  -7-90.1543 347.472   8
 -10   0  -7 270.205 643.368   3
 -11   0  -7-405.422 445.544   8
 -11   0  -7-6.45153 589.056   3
 -12   0  -7 95.3648 346.728   8
 -12   0  -7 138.072 616.440   3
 -13   0  -7-33.9237 389.170   8
 -14   0  -7-119.656 399.708   8
 -15   0  -7-141.375 431.120   8
 -16   0  -7-14.0713 382.595   8
 -17   0  -7 110.235 344.746   8
 -18   0  -7-668.847 357.005   4
 -19   0  -7-5.22771 225.912   4
 -20   0  -7 234.070 195.284   4
 -25  -1   7-24.0724 175.367   8
 -24  -1   7 404.239 270.744   8
 -23  -1   7-68.2128 279.412   8
 -22  -1   7 114.256 335.693   8
 -21  -1   7 41.7296 310.063   8
 -20  -1   7 5135.76 793.733   8
 -19  -1   7 7339.25 932.655   8
 -18  -1   7 1349.97 502.010   8
 -17  -1   7 11487.3 1124.22   8
 -16  -1   7-60.0611 324.991   8
  16   1  -7-887.744 766.386   1
  16  -1  -7 705.184 623.335   1
  15   1  -7 865.413 624.314   1
  15   1  -7 743.899 402.228   4
  15  -1  -7 1051.51 699.893   1
 -15  -1   7 841.603 375.497   8
  15  -1  -7 514.735 387.272   4
  14   1  -7 9693.86 1815.58   1
  14  -1  -7 9160.90 1750.64   1
 -13  -1   7 34.8666 375.931   3
  13   1  -7 106.395 503.561   1
  13  -1  -7 147.018 437.242   1
 -12  -1   7 470.073 427.801   3
  12  -1  -7 1083.92 696.558   1
  12   1  -7 955.272 700.723   1
 -11  -1   7 1305.51 514.118   3
  11   1  -7 844.548 616.663   1
  11  -1  -7 1007.02 582.919   1
 -10  -1   7-82.5446 380.394   3
  10   1  -7 271.835 439.108   1
  10  -1  -7-359.863 549.238   1
  -9  -1   7 8554.42 1103.04   3
   9   1  -7 7572.77 1250.04   1
   9  -1  -7 7134.74 1233.19   1
  -8  -1   7 3953.12 779.330   3
   8  -1  -7 4013.83 923.509   1
   8   1  -7 3575.13 873.495   1
   7   1  -7 35890.1 2059.64   2
   7  -1  -7 39393.9 3016.77   2
   6   1  -7 24751.7 1598.13   2
   6  -1  -7 26105.5 2423.65   2
   5   1  -7 263.681 270.949   2
   5  -1  -7 9.33154 617.924   2
   4   1  -7 89.9415 229.520   2
   4  -1  -7 655.939 710.164   2
   3   1  -7-233.600 300.074   2
   3  -1  -7 611.909 705.123   2
   2   1  -7 10845.8 923.633   2
   2  -1  -7 12018.1 1638.09   2
   1  -1  -7 3181.83 996.443   2
   1  -1  -7 2999.67 511.891   3
   0  -1  -7 17496.7 1256.64   3
   0  -1  -7 16785.8 1795.88   2
  -1  -1  -7 30968.1 1799.29   3
  -1  -1  -7 32454.8 2526.06   2
  -2  -1  -7-45.1404 640.173   2
  -2  -1  -7-130.147 343.954   3
  -3  -1  -7 8733.68 1128.99   3
  -3  -1  -7 8250.60 1384.99   2
  -4  -1  -7 48967.7 3386.54   2
  -4  -1  -7 50645.3 2718.19   3
  -5  -1  -7 27490.2 2137.61   3
  -6  -1  -7 1400.37 558.353   3
  -7  -1  -7 4296.81 990.077   3
  -8  -1  -7-173.770 575.848   3
  -9  -1  -7 2828.87 937.487   3
 -10  -1  -7 15243.0 2133.82   3
 -10   1  -7 12196.5 1257.16   8
 -10  -1  -7 15474.1 1362.33   8
 -11  -1  -7 6362.21 924.777   8
 -11   1  -7 5161.15 853.714   8
 -11  -1  -7 6008.66 1443.70   3
 -12   1  -7 2567.99 657.375   8
 -12  -1  -7 2510.01 646.006   8
 -12  -1  -7 3163.83 1109.29   3
 -13   1  -7 8613.49 1099.68   8
 -13  -1  -7 8118.06 1102.62   8
 -14  -1  -7 3227.62 730.723   8
 -15  -1  -7 2576.80 571.005   4
 -15  -1  -7 2383.90 677.501   8
 -16  -1  -7 688.944 333.366   4
 -16  -1  -7 1039.78 479.343   8
 -17  -1  -7 539.976 294.207   4
 -17  -1  -7 1032.32 500.350   8
 -18   1  -7 424.416 327.650   4
 -18  -1  -7 324.056 341.399   8
 -19   1  -7 664.168 316.312   4
 -20   1  -7-94.8111 204.579   4
 -24  -2   7 1143.98 291.665   8
 -23  -2   7 993.281 313.335   8
 -22  -2   7 4365.47 641.251   8
 -21  -2   7-184.646 397.080   8
 -20  -2   7-222.197 348.113   8
 -19  -2   7 19818.3 1479.85   8
 -18  -2   7 921.902 493.904   8
 -17  -2   7 19280.7 1476.51   8
 -16  -2   7 1694.32 500.198   8
 -15  -2   7 2026.73 857.872   3
 -15  -2   7 1198.28 456.571   8
 -14  -2   7 518.853 477.806   3
 -14  -2   7 216.487 301.784   8
 -13  -2   7 2051.51 828.854   3
 -13  -2   7 3044.36 608.107   8
  13   2  -7 2624.87 510.318   7
  12   2  -7 4303.48 1086.48   1
 -12  -2   7 5046.97 1169.85   3
 -12  -2   7 4845.55 686.007   8
  12  -2  -7 3997.24 1337.88   2
 -11  -2   7 5150.12 1144.27   3
  11  -2  -7 4402.08 1413.46   2
 -10  -2   7 5656.78 1182.70   3
  10  -2  -7 6674.56 1673.61   2
  -9  -2   7 536.017 533.015   3
   9  -2  -7 633.035 701.517   2
  -8  -2   7-48.2611 469.360   3
   8  -2  -7 174.077 580.713   2
   7  -2  -7 8006.99 1685.49   2
   6  -2  -7 76161.8 4830.93   2
   5  -2  -7 18562.1 2434.64   2
   4  -2  -7 377650. 10380.5   2
   3  -2  -7 140821. 6359.25   2
   2  -2  -7 34158.6 3105.50   2
   1  -2  -7 32.2230 678.333   2
   0  -2  -7 412.044 538.675   2
  -1  -2  -7 52092.3 3648.19   2
  -2  -2  -7 16489.1 2125.77   2
  -2  -2  -7 17492.1 1472.24   3
  -3  -2  -7 241.941 367.666   3
  -3  -2  -7 52.7176 562.013   2
  -4  -2  -7 2906.09 717.594   3
  -4  -2  -7 2684.41 1110.03   2
  -5  -2  -7 30745.7 3080.37   2
  -5  -2  -7 33361.1 2464.04   3
  -6  -2  -7 17624.1 1888.55   3
  -7  -2  -7 59171.0 2023.26   5
  -7  -2  -7 53354.3 3468.24   3
  -8  -2  -7 2662.27 484.642   5
  -8  -2  -7 2434.05 809.047   3
  -9  -2  -7 1156.68 378.747   5
  -9  -2  -7 1206.56 444.108   8
  -9  -2  -7 1840.90 852.636   3
 -10  -2  -7 286.584 294.360   5
 -10  -2  -7-74.6396 351.747   8
 -10  -2  -7 823.012 608.139   3
 -11  -2  -7 7129.50 777.514   5
 -11  -2  -7 8543.36 1072.29   8
 -12  -2  -7 2847.50 510.729   5
 -12  -2  -7 3157.45 688.377   8
 -13  -2  -7-154.433 312.253   5
 -13  -2  -7-216.079 378.620   8
 -14  -2  -7 5522.81 874.820   8
 -15  -2  -7 169.477 343.742   8
 -16  -2  -7 6919.28 871.180   8
 -16   2  -7 6768.15 840.019   4
 -17   2  -7 2091.58 476.467   4
 -17  -2  -7 2096.47 506.371   8
 -18   2  -7 1204.90 348.592   4
 -19   2  -7 251.939 190.603   4
 -22  -3   7 320.522 188.926   8
 -21  -3   7 1716.57 369.775   8
 -20  -3   7 2161.44 454.487   8
 -19  -3   7 773.476 350.941   8
 -18  -3   7 13514.2 1132.02   8
 -17  -3   7 3168.20 534.983   5
 -17  -3   7 3656.28 668.345   8
 -16  -3   7 25037.5 1451.49   5
 -16  -3   7 24782.9 1584.24   8
 -15  -3   7 374.065 338.787   5
 -15  -3   7 566.880 329.898   8
 -14  -3   7 16036.2 1302.12   5
 -14  -3   7 17158.5 1338.00   8
 -13  -3   7 438.817 321.697   8
 -12  -3   7 11637.8 1086.00   8
 -11  -3   7-1030.86 665.884   3
  11  -3  -7 230.323 650.457   2
 -11  -3   7 223.010 302.649   8
 -10  -3   7 986.478 686.153   3
  10   3  -7 628.139 313.024   7
  10  -3  -7 1863.00 1068.66   2
 -10  -3   7 816.172 356.070   8
   9  -3  -7 41584.0 4347.52   2
  -9  -3   7 40303.1 3535.45   3
  -9  -3   7 38658.1 1848.55   8
   9   3  -7 41981.8 1921.81   7
  -8  -3   7 6471.39 1442.58   3
   8  -3  -7 6645.35 1743.11   2
   8   3  -7 6100.73 784.263   7
   7   3  -7 22658.2 1490.88   7
   7  -3  -7 24608.4 3260.89   2
  -7  -3   7 23243.0 2616.04   3
   6  -3  -7-634.212 733.008   2
   5  -3  -7 20582.5 2843.46   2
   4  -3  -7 19855.9 2735.87   2
   3  -3  -7 30259.0 3307.33   2
   2  -3  -7 969.838 588.661   2
   1  -3  -7 1392.53 851.988   2
   0  -3  -7 12902.2 2070.19   2
  -1  -3  -7 22739.0 1277.26   5
  -1  -3  -7 19371.4 2598.48   2
  -2  -3  -7 27566.1 1435.58   5
  -2  -3  -7 23296.0 2788.44   2
  -3  -3  -7 3891.84 592.980   5
  -3  -3  -7 3058.80 1145.97   2
  -4  -3  -7 9370.09 904.865   5
  -4  -3  -7 7421.34 1653.31   2
  -5  -3  -7 2056.66 504.271   5
  -6  -3  -7 44098.2 1929.07   5
  -7  -3  -7 4608.56 693.854   5
  -8  -3  -7 8724.59 913.208   5
  -9  -3  -7 4044.21 642.712   5
 -10  -3  -7 2551.78 537.215   5
 -11  -3  -7 26714.4 1439.76   5
 -12  -3  -7 14318.6 1024.99   5
 -12   3  -7 11999.9 1057.38   4
 -13   3  -7 946.396 342.700   4
 -13  -3  -7 1556.52 412.100   5
 -14   3  -7-62.3244 269.790   4
 -14  -3  -7 131.086 233.525   5
 -15  -3  -7 7286.86 572.781   5
 -15   3  -7 6368.26 629.227   4
 -16   3  -7-229.608 176.655   4
  19  -4  -7 11073.5 783.359   6
  18  -4  -7 74.8271 293.430   6
 -17  -4   7 4694.55 487.514   5
  17  -4  -7 5680.51 782.313   6
  16  -4  -7 499.659 444.068   6
 -16  -4   7 540.757 316.857   5
 -15  -4   7 11719.7 956.636   5
  15  -4  -7 11380.6 1251.65   6
  14  -4  -7 1243.54 624.929   6
 -14  -4   7 1271.27 489.806   5
 -13  -4   7 27877.2 1635.18   5
  13  -4  -7 27574.3 2155.18   6
  12  -4  -7 6045.02 1072.99   6
 -12  -4   7 5576.82 825.750   5
 -11  -4   7 13561.7 1261.64   5
  11  -4  -7 15422.2 1611.96   6
 -10  -4   7 16983.8 1453.07   5
  10  -4  -7 17076.5 1646.17   6
   9  -4  -7 14426.7 1543.73   6
   8  -4  -7 31620.1 2166.32   6
   7  -4  -7 7933.55 1121.41   6
   6  -4  -7 19523.8 1672.76   6
  -6  -4   7 19836.5 1391.72   6
   5  -4  -7 805.584 536.502   6
   5   4  -7 1120.78 436.193   7
   4  -4  -7 2622.85 712.393   6
   4   4  -7 2853.40 625.920   7
   3  -4  -7 1201.44 542.375   6
   3   4  -7 709.720 436.266   7
   2  -4  -7 1930.55 640.817   6
   2   4  -7 935.219 455.007   7
   1  -4  -7 15667.0 1066.67   5
   1  -4  -7 14735.6 1345.27   6
   0  -4  -7 1115.61 431.403   5
   0  -4  -7 1118.99 430.946   6
  -1  -4  -7 28301.9 1491.43   5
  -1  -4  -7 26398.7 1718.38   6
  -2  -4  -7 3838.05 617.679   5
  -2  -4  -7 3024.12 644.410   6
  -3  -4  -7 19956.2 1283.38   5
  -3  -4  -7 17908.9 1381.99   6
  -4  -4  -7 10911.5 994.398   5
  -4  -4  -7 9743.97 1035.65   6
  -5  -4  -7 32036.6 1628.46   5
  -5  -4  -7 27767.6 1638.35   6
  -6  -4  -7 584.787 409.456   5
  -6  -4  -7 392.322 394.968   6
  -7  -4  -7 29834.0 1557.12   5
  -8  -4  -7 3766.76 618.038   5
  -9  -4  -7 23962.1 1322.45   5
 -10  -4  -7 348.945 323.768   5
 -11  -4  -7 8098.19 717.422   5
 -12  -4  -7 1649.95 373.564   5
 -13  -4  -7-29.3501 204.026   5
 -14  -4  -7 8980.59 526.731   5
 -14  -5   7 16412.0 759.850   5
  14  -5  -7 18758.8 968.316   6
  13  -5  -7 2128.08 446.396   6
 -13  -5   7 1288.42 327.035   5
 -12  -5   7 15044.0 906.221   5
  12  -5  -7 15675.0 1131.62   6
 -11  -5   7 5325.37 628.906   5
  11  -5  -7 5751.49 838.362   6
 -10  -5   7 15051.7 1032.65   5
  10  -5  -7 16362.9 1339.62   6
   9  -5  -7 4786.80 815.184   6
  -9  -5   7 3197.36 574.031   5
  -8  -5   7 6085.77 754.657   5
   8  -5  -7 6755.44 935.956   6
   7  -5  -7 1591.33 559.068   6
  -7  -5   7 2179.79 543.606   5
   6  -5  -7-272.154 541.235   6
  -6  -5   7 533.735 439.773   5
  -5  -5   7 22404.4 1475.98   5
   5  -5  -7 22228.1 1523.55   6
  -4  -5   7 734.833 436.832   5
   4  -5  -7 165.430 453.467   6
  -3  -5   7 24745.4 1413.59   5
   3  -5  -7 29652.9 1703.23   6
  -2  -5   7 3267.05 574.903   5
   2  -5  -7 2651.10 649.145   6
   1  -5  -7 24025.5 1484.54   6
   0  -5  -7 7468.94 896.670   6
  -1  -5  -7 16471.4 910.701   5
  -1   5  -7 19041.5 1156.22   7
  -1  -5  -7 19933.2 1302.07   6
  -2  -5  -7 13106.5 838.940   5
  -2   5  -7 13805.8 995.329   7
  -2  -5  -7 13561.6 1057.94   6
  -3  -5  -7 311.530 237.818   5
  -3   5  -7 79.3783 248.892   7
  -3  -5  -7 119.599 283.313   6
  -4  -5  -7 11664.5 809.103   5
  -4   5  -7 12144.5 926.888   7
  -4  -5  -7 12024.1 906.674   6
  -5  -5  -7 482.376 267.306   5
  -5   5  -7 89.0195 253.504   7
  -6   5  -7 6160.95 652.033   7
  -6  -5  -7 6368.83 581.051   5
  -7  -5  -7-40.7423 224.514   5
  -7   5  -7 30.1607 234.265   7
  -8  -5  -7 4145.15 462.104   5
  -8   5  -7 3608.81 451.428   7
  -9  -5  -7 2626.96 337.623   5
  -9   5  -7 2681.86 363.588   7
 -23   0   8 29619.8 1379.39   8
 -22   0   8 10946.6 933.738   8
 -21   0   8 7271.81 824.005   8
 -20   0   8-118.916 271.261   8
 -19   0   8 2900.63 573.822   8
 -18   0   8 20276.9 1401.70   8
  17   0  -8 45763.5 4308.43   1
 -17   0   8 44398.7 2048.29   8
  16   0  -8 37048.1 2250.34   4
  16   0  -8 37941.1 3805.82   1
 -16   0   8 37573.8 1848.51   8
  15   0  -8 89234.2 3213.59   4
  15   0  -8 84849.9 5512.82   1
 -15   0   8 83764.3 2688.85   8
  14   0  -8 4387.48 1242.97   1
  13   0  -8 21221.7 2561.09   1
  12   0  -8 211120. 7637.72   1
  11   0  -8 8855.97 1538.44   1
  10   0  -8 381261. 9244.43   1
   9   0  -8 175343. 6026.45   1
   8   0  -8 226001. 6749.32   2
   7   0  -8 2364.74 794.917   2
   6   0  -8 211493. 6204.65   2
   5   0  -8 113974. 4474.63   2
   4   0  -8 155540. 5201.82   2
   3   0  -8 174865. 5393.68   2
   2   0  -8 57632.9 3002.54   2
   1   0  -8 102471. 3959.33   2
   0   0  -8 28729.4 2170.21   2
  -1   0  -8 171411. 5374.56   2
  -2   0  -8 936.097 683.411   2
  -3   0  -8 255059. 6888.95   3
  -4   0  -8 79151.7 3989.34   3
  -5   0  -8 90633.2 4525.56   3
  -6   0  -8 58289.3 3724.26   3
  -7   0  -8 26062.9 2643.05   3
  -8   0  -8 44517.1 3585.79   3
  -9   0  -8 29494.7 3050.85   3
  -9   0  -8 27130.3 1807.92   8
 -10   0  -8 65114.1 4776.48   3
 -10   0  -8 62506.9 2802.97   8
 -11   0  -8 7721.35 1707.88   3
 -11   0  -8 7233.09 1030.42   8
 -12   0  -8 38380.9 2311.82   8
 -13   0  -8 290.148 397.860   8
 -14   0  -8 14016.9 1409.70   8
 -15   0  -8 4373.84 817.501   8
 -16   0  -8 7664.63 928.657   4
 -17   0  -8 8696.59 886.123   4
 -18   0  -8 8951.59 823.840   4
 -19   0  -8 7346.72 651.093   4
 -25  -1   8 12612.1 722.178   8
 -24  -1   8 5723.10 601.281   8
 -23  -1   8 26271.7 1393.02   8
 -22  -1   8 16688.1 1218.63   8
 -21  -1   8 945.031 406.506   8
 -20  -1   8 72598.3 2726.66   8
 -19  -1   8 509.076 402.421   8
 -18  -1   8 96248.6 3201.04   8
 -17  -1   8 230.539 339.108   8
  16   1  -8 74763.4 2988.39   4
 -16  -1   8 71588.4 2720.05   8
  16   1  -8 67543.3 5013.92   1
  16  -1  -8 67142.6 5011.75   1
  15  -1  -8 29792.5 1893.98   4
  15   1  -8 28580.0 1776.71   4
  15   1  -8 27225.8 3107.68   1
  15  -1  -8 22988.3 2848.00   1
 -15  -1   8 29148.5 1702.02   8
  14  -1  -8 68348.7 2760.75   4
  14   1  -8 61816.4 4466.69   1
  14  -1  -8 57456.1 4310.07   1
 -14  -1   8 69030.0 2545.92   8
  13   1  -8 59141.7 4184.01   1
  13  -1  -8 53757.7 3993.81   1
 -12  -1   8 33973.7 2319.82   3
  12   1  -8 32188.7 2961.88   1
  12  -1  -8 30462.3 2889.75   1
  11   1  -8 87416.5 4653.14   1
  11  -1  -8 85343.2 4625.20   1
 -10  -1   8 1080.73 462.338   3
  10  -1  -8 747.788 475.978   1
  10   1  -8 914.891 535.924   1
  -9  -1   8 124247. 4207.41   3
   9  -1  -8 112722. 5677.56   2
  -8  -1   8 17128.4 1554.24   3
   8  -1  -8 16014.0 2110.91   2
   7  -1  -8 43105.6 3321.07   2
   6  -1  -8 26982.8 2634.51   2
   5  -1  -8 178981. 6474.47   2
   4  -1  -8 39000.7 3081.94   2
   3   1  -8 271002. 4942.59   2
   3  -1  -8 285603. 8171.95   2
   2   1  -8 7870.82 930.852   2
   2  -1  -8 7444.73 1380.07   2
   1  -1  -8 128.421 526.236   2
   0  -1  -8 85361.5 3012.28   3
   0  -1  -8 83092.7 4217.62   2
  -1  -1  -8 22687.0 1667.89   3
  -1  -1  -8 20076.5 2162.00   2
  -2  -1  -8 64530.7 3857.14   2
  -2  -1  -8 66341.3 3048.65   3
  -3  -1  -8 299.307 409.925   3
  -3  -1  -8 412.084 581.574   2
  -4  -1  -8 146047. 6113.13   2
  -4  -1  -8 142508. 5085.78   3
  -5  -1  -8 93618.2 4260.34   3
  -6  -1  -8 137041. 5521.39   3
  -7  -1  -8 100025. 4912.57   3
  -8  -1  -8 81543.8 4692.77   3
  -9  -1  -8 75185.3 2235.09   5
  -9  -1  -8 80450.4 4848.97   3
  -9  -1  -8 77805.2 3054.88   8
 -10  -1  -8 18513.0 1165.51   5
 -10  -1  -8 21531.8 2697.01   3
 -10  -1  -8 18552.7 1565.10   8
 -10  -1  -8 19453.7 1471.15   4
 -11  -1  -8 37733.8 3620.47   3
 -11  -1  -8 34860.5 2152.37   8
 -11  -1  -8 34805.1 1969.03   4
 -12  -1  -8 101.748 288.330   4
 -12  -1  -8 216.078 391.438   8
 -13  -1  -8 26467.7 1922.85   8
 -13  -1  -8 25839.2 1689.92   4
 -14  -1  -8 10046.5 1198.03   8
 -14  -1  -8 9460.87 1003.93   4
 -15  -1  -8 56059.6 2633.52   8
 -15  -1  -8 49809.1 2145.92   4
 -16  -1  -8 30339.5 1869.87   8
 -16  -1  -8 26579.7 1445.50   4
 -16   1  -8 32127.5 1815.03   4
 -17   1  -8 13775.8 1122.43   4
 -18   1  -8 18583.2 1175.36   4
 -19   1  -8 2246.57 393.180   4
 -24  -2   8 10878.7 719.205   8
 -23  -2   8 13826.8 938.481   8
 -22  -2   8 10345.4 900.121   8
 -21  -2   8 16155.4 1194.16   8
 -20  -2   8 1826.22 508.743   8
 -19  -2   8 68499.4 2647.88   8
 -18  -2   8-329.523 391.413   8
 -17  -2   8 82002.4 2990.52   8
 -16  -2   8 16122.5 1340.11   8
 -15  -2   8 33491.1 1922.00   8
 -14  -2   8 27069.1 2583.25   3
  14   2  -8 30960.1 1705.60   7
  14  -2  -8 31364.7 3973.59   2
 -14  -2   8 33548.7 1874.49   8
  13  -2  -8 48463.3 2306.21   4
 -13  -2   8 52058.6 3552.87   3
  13   2  -8 55534.6 2231.42   7
  13  -2  -8 51534.7 4956.78   2
 -13  -2   8 54708.5 2335.43   8
  12  -2  -8 27544.2 1698.30   4
 -12  -2   8 27626.5 2584.68   3
  12   2  -8 29810.6 1622.16   7
  12  -2  -8 28026.5 3563.86   2
 -11  -2   8 615.325 469.744   3
  11  -2  -8 1534.19 984.504   2
 -10  -2   8 45581.0 3244.95   3
  10  -2  -8 45119.5 4236.83   2
   9  -2  -8 12120.1 2215.27   2
  -9  -2   8 12489.2 1698.92   3
  -8  -2   8 91235.7 4442.82   3
   8  -2  -8 89178.8 5671.13   2
   7  -2  -8 908.733 804.602   2
   6  -2  -8 2743.96 1137.39   2
   5  -2  -8 289557. 9654.29   2
   4  -2  -8 56906.3 4504.51   2
   3  -2  -8 160150. 7007.41   2
   2  -2  -8 173526. 7097.45   2
   1  -2  -8 67387.4 4359.04   2
   0  -2  -8 13255.7 2021.08   2
  -1  -2  -8 149429. 6569.72   2
  -2  -2  -8-114.550 640.999   2
  -3  -2  -8 104138. 5520.63   2
  -4  -2  -8 9381.56 1313.52   3
  -4  -2  -8 8056.26 1691.48   2
  -5  -2  -8 98547.3 4392.83   3
  -6  -2  -8 713.399 352.480   5
  -6  -2  -8 676.712 456.284   3
  -7  -2  -8 27574.6 1448.60   5
  -7  -2  -8 28109.7 2614.35   3
  -8  -2  -8 6411.91 757.373   5
  -8  -2  -8 5993.61 859.585   8
  -8  -2  -8 5138.83 1201.10   3
  -9  -2  -8 1303.68 427.323   5
  -9  -2  -8 1145.02 427.709   8
 -10  -2  -8 85128.4 2527.83   5
 -10  -2  -8 83231.0 3195.53   8
 -11  -2  -8 325.214 336.230   5
 -11  -2  -8-122.019 386.934   8
 -12  -2  -8 78556.5 2350.68   5
 -12  -2  -8 77209.5 3080.39   8
 -13   2  -8 2314.27 605.085   4
 -13  -2  -8 2220.45 440.066   5
 -13  -2  -8 3076.86 666.938   8
 -14  -2  -8 22351.5 1599.58   8
 -14   2  -8 23037.9 1567.41   4
 -15  -2  -8 10127.4 1038.13   8
 -15   2  -8 10267.4 1008.99   4
 -16   2  -8 12341.0 1022.71   4
 -17   2  -8 7170.81 704.911   4
 -18   2  -8 10627.2 721.681   4
 -22  -3   8 18361.5 888.735   8
 -21  -3   8 91.1697 211.030   8
 -20  -3   8 19337.1 1151.28   8
 -19  -3   8 266.209 299.099   8
 -18  -3   8 18487.4 1271.21   8
 -17  -3   8 134.907 265.962   5
 -17  -3   8-45.5754 275.655   8
 -16  -3   8 7930.27 857.589   5
 -16  -3   8 8060.63 911.522   8
 -15  -3   8 719.240 372.907   5
 -15  -3   8 511.222 292.099   8
 -14  -3   8 2041.62 532.146   8
 -13  -3   8 39142.5 2006.46   8
  13   3  -8 40985.3 1879.54   7
  12   3  -8 18859.1 1306.20   7
 -12  -3   8 19203.6 1405.63   8
  11   3  -8 100294. 2976.54   7
 -11  -3   8 100880. 3125.89   8
 -10  -3   8 29967.7 3097.94   3
 -10  -3   8 31248.2 1742.52   8
  10  -3  -8 36669.4 4234.11   2
  10   3  -8 32006.5 1723.21   7
  -9  -3   8 47210.0 3808.65   3
   9  -3  -8 47087.5 4787.27   2
   9   3  -8 45420.2 2083.03   7
  -8  -3   8 23.2443 477.110   3
   8  -3  -8-865.489 874.587   2
   8   3  -8 435.159 374.770   7
   7   3  -8 60660.6 2496.36   7
   7  -3  -8 64276.6 5416.14   2
  -7  -3   8 58916.7 4233.10   3
   6  -3  -8 24848.5 3317.79   2
   6   3  -8 21983.8 1534.11   7
   5   3  -8 126630. 3658.45   7
   5  -3  -8 129825. 7303.88   2
   4  -3  -8 56196.4 4666.26   2
   4   3  -8 56327.8 2477.22   7
   4  -3  -8 52148.8 2454.73   6
   3  -3  -8 45905.8 4134.94   2
   3  -3  -8 45199.4 2221.26   6
   2  -3  -8 73471.0 5163.81   2
   1  -3  -8 11910.9 932.132   5
   1  -3  -8 12419.5 2155.11   2
   0  -3  -8 76008.1 2320.76   5
   0  -3  -8 72265.1 5066.93   2
  -1  -3  -8 4109.86 1279.55   2
  -1  -3  -8 4511.16 612.971   5
  -2  -3  -8 53896.4 2037.59   5
  -2  -3  -8 48076.8 4212.77   2
  -3  -3  -8 537.019 343.828   5
  -3  -3  -8 456.928 665.239   2
  -4  -3  -8 47531.7 1972.65   5
  -5  -3  -8 6156.13 768.718   5
  -6  -3  -8 12333.0 1045.22   5
  -7  -3  -8 14689.9 1131.47   5
  -8  -3  -8 950.815 397.500   5
  -9  -3  -8 46721.5 1941.42   5
 -10  -3  -8-74.3393 347.176   5
 -11  -3  -8 33436.5 1543.86   5
 -11   3  -8 29332.7 1607.48   4
 -12   3  -8-6.65374 291.318   4
 -12  -3  -8 54.2187 277.165   5
 -13  -3  -8 16396.6 981.886   5
 -13   3  -8 15370.9 1045.99   4
 -14   3  -8 354.109 196.118   4
 -14  -3  -8 295.079 240.497   5
 -15   3  -8 5503.05 514.455   4
  19  -4  -8 14527.5 848.781   6
  18  -4  -8 200.027 282.571   6
 -17  -4   8 19132.1 913.094   5
  17  -4  -8 22651.2 1394.26   6
  16  -4  -8 4508.97 722.580   6
 -16  -4   8 4974.61 588.108   5
 -15  -4   8 15863.4 1100.88   5
  15  -4  -8 17701.9 1485.12   6
 -14  -4   8 11191.0 1003.92   5
  14  -4  -8 10972.2 1255.31   6
  13  -4  -8 5403.30 964.563   6
 -13  -4   8 5053.97 750.044   5
 -12  -4   8 21670.2 1508.48   5
  12  -4  -8 23237.0 1934.80   6
  11  -4  -8 8470.15 1185.42   6
 -11  -4   8 8774.38 1062.68   5
  10  -4  -8 28243.4 2062.04   6
   9  -4  -8 284.432 476.982   6
   8  -4  -8 29598.7 2069.06   6
   7  -4  -8 3612.40 779.149   6
   7   4  -8 4153.28 663.004   7
   6   4  -8 10201.3 1015.65   7
   6  -4  -8 9872.22 1213.45   6
   5  -4  -8-133.553 457.652   6
   5   4  -8-64.7333 352.734   7
   4  -4  -8 201.801 543.948   6
   4   4  -8 30.3393 309.886   7
   3   4  -8 6700.92 901.453   7
   3  -4  -8 6788.22 978.140   6
   2  -4  -8 12894.6 1274.93   6
   2   4  -8 13243.2 1253.49   7
   1  -4  -8 26624.1 1377.09   5
   1  -4  -8 23620.7 1632.27   6
   0  -4  -8 6796.04 759.942   5
   0  -4  -8 6019.35 857.753   6
  -1  -4  -8 8448.44 838.299   5
  -1  -4  -8 8396.80 982.777   6
  -2  -4  -8 9039.65 881.269   5
  -2  -4  -8 8015.89 946.757   6
  -3  -4  -8 35194.9 1680.49   5
  -3  -4  -8 32169.5 1742.54   6
  -4  -4  -8 9033.29 892.561   5
  -4  -4  -8 7072.90 833.524   6
  -5  -4  -8 27899.0 1507.52   5
  -6  -4  -8 1396.39 453.201   5
  -7  -4  -8 3326.46 584.654   5
  -8  -4  -8 16143.6 1093.00   5
  -9  -4  -8 1178.30 406.067   5
 -10  -4  -8 38322.9 1500.43   5
 -11  -4  -8 773.853 338.752   5
 -12  -4  -8 28145.8 1102.48   5
 -13  -4  -8 329.798 189.400   5
 -14  -5   8 6108.43 453.505   5
  14  -5  -8 7009.10 574.989   6
 -13  -5   8 7172.95 566.415   5
  13  -5  -8 8734.76 747.533   6
  12  -5  -8 1986.11 471.019   6
 -12  -5   8 1488.54 351.100   5
 -11  -5   8 6628.44 658.034   5
  11  -5  -8 7449.86 820.182   6
  10  -5  -8 1469.11 556.814   6
 -10  -5   8 1418.01 401.591   5
  -9  -5   8 14888.3 1045.66   5
   9  -5  -8 16957.7 1249.39   6
   8  -5  -8 1026.64 491.071   6
  -8  -5   8 1883.09 480.735   5
  -7  -5   8 16047.1 1171.93   5
   7  -5  -8 14946.4 1189.83   6
  -6  -5   8 2519.39 578.811   5
   6  -5  -8 1274.07 467.420   6
  -5  -5   8 4351.21 760.111   5
   5  -5  -8 3259.00 626.249   6
  -4  -5   8 3635.78 628.387   5
   4  -5  -8 3935.12 658.732   6
  -3  -5   8 2290.51 481.780   5
   3  -5  -8 2609.24 568.894   6
   2  -5  -8 7035.43 808.829   6
   1  -5  -8 896.001 430.530   6
   0   5  -8 15021.1 992.055   7
   0  -5  -8 13622.2 1051.32   6
  -1   5  -8-108.699 226.482   7
  -1  -5  -8 691.132 378.246   6
  -2  -5  -8 17913.4 930.619   5
  -2   5  -8 18911.9 1127.11   7
  -2  -5  -8 16564.5 1035.43   6
  -3  -5  -8 684.694 288.410   5
  -3   5  -8 127.977 272.155   7
  -3  -5  -8 254.752 267.185   6
  -4  -5  -8 9827.95 693.243   5
  -4   5  -8 9889.99 810.830   7
  -5  -5  -8 637.789 279.526   5
  -5   5  -8 274.379 224.954   7
  -6  -5  -8 3973.37 457.618   5
  -6   5  -8 4204.28 518.223   7
  -7  -5  -8 2517.39 353.274   5
  -7   5  -8 2753.51 390.987   7
  -8  -5  -8 515.980 210.271   5
  -8   5  -8 62.2011 170.091   7
 -23   0   9 322.607 240.586   8
 -22   0   9-40.3109 236.805   8
 -21   0   9-199.301 264.515   8
 -20   0   9 226.947 246.203   8
 -19   0   9-85.4616 279.514   8
 -18   0   9-208.397 350.457   8
 -17   0   9-535.479 378.758   8
  17   0  -9-177.910 451.845   4
  16   0  -9-375.173 674.859   1
 -16   0   9-474.564 323.130   8
  16   0  -9 232.399 410.084   4
  15   0  -9-111.590 460.437   1
 -15   0   9-124.784 251.107   8
  15   0  -9-8.05630 355.858   4
  14   0  -9 218.861 474.688   1
  14   0  -9-24.5685 405.507   4
  13   0  -9-173.611 574.616   1
  12   0  -9-82.5826 452.554   1
  11   0  -9-56.5955 484.215   1
  11   0  -9-237.333 587.363   2
  10   0  -9 497.799 473.553   2
   9   0  -9 69.2317 432.824   2
   8   0  -9-65.4757 506.686   2
   7   0  -9 110.438 559.507   2
   6   0  -9 305.002 563.290   2
   5   0  -9-17.7846 526.805   2
   4   0  -9-166.116 519.406   2
   3   0  -9-99.5829 442.744   2
   2   0  -9-59.1490 417.863   2
   1   0  -9-81.6234 540.689   2
   0   0  -9-34.9354 514.280   2
  -1   0  -9-103.277 542.450   2
  -2   0  -9 467.200 561.413   2
  -6   0  -9-533.579 726.237   3
  -7   0  -9 287.701 619.611   3
  -8   0  -9 25.5190 342.466   8
  -8   0  -9-207.685 690.301   3
  -9   0  -9 33.2008 360.113   8
 -10   0  -9-47.0437 384.892   8
 -11   0  -9 5.15639 367.832   8
 -12   0  -9-185.485 371.262   8
 -13   0  -9-268.059 446.202   4
 -14   0  -9-276.863 375.417   4
 -15   0  -9-9.16313 317.549   4
 -16   0  -9 70.9499 302.329   4
 -17   0  -9-108.556 253.667   4
 -18   0  -9-301.751 239.360   4
 -19   0  -9 43.2099 120.221   4
 -25  -1   9 230.012 163.091   8
 -24  -1   9 878.940 280.597   8
 -23  -1   9 1137.84 353.101   8
 -22  -1   9 24593.9 1425.47   8
 -21  -1   9 7886.89 881.609   8
 -20  -1   9 26393.7 1639.30   8
 -19  -1   9-133.178 360.570   8
 -18  -1   9-15.9382 330.182   8
 -17  -1   9 1198.10 431.778   8
  16  -1  -9 246.354 649.423   1
 -16  -1   9 356.294 316.883   8
  16   1  -9-212.463 590.899   1
  16  -1  -9-89.1823 457.429   4
  16   1  -9 467.334 369.367   4
  15  -1  -9-323.158 497.587   1
 -15  -1   9 306.950 372.191   8
  15  -1  -9 152.446 366.983   4
  15   1  -9-152.802 365.584   4
  15   1  -9-1112.76 776.444   1
  14   1  -9 415.942 462.853   1
 -14  -1   9 336.637 276.049   8
  14  -1  -9 407.559 421.589   4
  14   1  -9 1086.01 555.460   4
  14  -1  -9 330.635 469.525   1
  13   1  -9-69.5218 512.720   1
  13  -1  -9-286.041 574.229   1
  13   1  -9-29.5792 251.010   7
  13  -1  -9-7.28572 314.504   4
  13  -1  -9 38.4506 728.227   2
  12  -1  -9 7984.46 1791.23   2
  11  -1  -9 3042.52 1097.76   2
 -10  -1   9 566.975 404.962   3
  10  -1  -9 315.666 606.218   2
  -9  -1   9 4098.40 815.023   3
   9  -1  -9 3755.59 1139.87   2
  -8  -1   9 813.738 414.091   3
   8  -1  -9 739.710 612.651   2
   7  -1  -9 235.667 570.106   2
   6  -1  -9 3667.24 1145.11   2
   5  -1  -9 4590.69 1253.55   2
   4  -1  -9 16872.4 2198.73   2
   3  -1  -9 1253.88 673.996   2
   2  -1  -9 26557.3 2556.89   2
   1  -1  -9 47176.3 3337.29   2
   0  -1  -9 899.583 628.266   2
  -1  -1  -9 33509.1 2216.08   3
  -1  -1  -9 33113.5 2878.01   2
  -2  -1  -9 1144.42 454.850   3
  -2  -1  -9 851.322 703.442   2
  -3  -1  -9 505.220 460.522   3
  -3  -1  -9 1254.24 829.611   2
  -4  -1  -9 27714.5 2824.34   2
  -4  -1  -9 26825.3 2300.10   3
  -5  -1  -9 1721.34 611.338   3
  -6  -1  -9 426.276 512.513   3
  -7  -1  -9 198.554 325.402   8
  -7  -1  -9-154.911 411.187   3
  -8  -1  -9 11839.6 935.409   5
  -8  -1  -9 12649.5 1949.55   3
  -8  -1  -9 11768.3 1229.42   8
  -8  -1  -9 11697.5 1125.42   4
  -9  -1  -9 5058.81 654.669   5
  -9  -1  -9 4372.58 726.060   4
  -9  -1  -9 5703.45 896.528   8
  -9  -1  -9 6032.58 1428.50   3
 -10  -1  -9 12554.6 985.003   5
 -10  -1  -9 12149.6 1173.40   4
 -10  -1  -9 15337.3 2319.40   3
 -10  -1  -9 12683.0 1327.04   8
 -11  -1  -9 7752.94 1074.34   8
 -11  -1  -9 8751.16 1010.46   4
 -12  -1  -9 2590.19 550.875   4
 -12  -1  -9 2647.84 716.535   8
 -13  -1  -9-270.092 343.545   4
 -13   1  -9-675.517 482.941   4
 -13  -1  -9 277.679 420.590   8
 -14  -1  -9 10564.1 1207.52   8
 -14  -1  -9 10354.6 988.286   4
 -14   1  -9 12123.5 1221.56   4
 -15  -1  -9-364.197 316.365   4
 -15   1  -9-141.110 392.309   4
 -16   1  -9 5944.70 768.661   4
 -17   1  -9 2045.09 438.383   4
 -18   1  -9-157.067 227.547   4
 -19   1  -9-166.794 167.582   4
 -24  -2   9 638.593 227.691   8
 -23  -2   9-192.133 257.066   8
 -22  -2   9 5930.63 681.810   8
 -21  -2   9 223.619 312.844   8
 -20  -2   9 882.634 401.007   8
 -19  -2   9 19397.6 1422.04   8
 -18  -2   9 85.8378 338.252   8
 -17  -2   9 16632.2 1364.39   8
 -16  -2   9 3075.50 677.092   8
 -15  -2   9 537.769 407.746   8
  14  -2  -9-264.308 1246.38   2
 -14  -2   9 1097.54 427.475   8
  14   2  -9 949.940 387.782   7
 -13  -2   9 2850.00 888.189   3
 -13  -2   9 3213.50 624.795   8
  13  -2  -9 2498.18 1094.00   2
  13   2  -9 2944.79 587.409   7
  13  -2  -9 2182.14 559.858   4
 -12  -2   9 6732.11 1266.27   3
  12  -2  -9 7131.57 899.314   4
  12   2  -9 7823.26 904.231   7
  12  -2  -9 9304.88 2166.46   2
 -11  -2   9 10469.3 1642.03   3
  11  -2  -9 9473.71 2114.57   2
  11   2  -9 10847.8 1029.44   7
 -10  -2   9 14856.6 1913.35   3
  10  -2  -9 16699.1 2719.12   2
   9  -2  -9 11942.9 2240.82   2
  -9  -2   9 12268.7 1712.03   3
  -8  -2   9 3642.75 1010.52   3
   8  -2  -9 2923.76 1179.26   2
   7  -2  -9 19160.8 2702.82   2
   6  -2  -9 757.711 711.767   2
   5  -2  -9 121807. 6741.13   2
   4  -2  -9 14682.1 2349.60   2
   3  -2  -9 19603.4 2580.91   2
   2  -2  -9 1359.44 862.823   2
   1  -2  -9 6174.26 1509.85   2
   0  -2  -9 10564.9 1902.62   2
  -1  -2  -9 40962.4 3645.70   2
  -2  -2  -9 21788.8 2693.82   2
  -3  -2  -9 2457.50 1068.39   2
  -4  -2  -9 7552.92 755.796   5
  -4  -2  -9 6362.18 1569.62   2
  -5   2  -9-41.1261 342.224   4
  -5  -2  -9 48.1232 301.431   5
  -6   2  -9 1117.43 430.541   4
  -6  -2  -9 2511.65 508.850   5
  -7   2  -9 5988.25 886.806   4
  -7  -2  -9 7626.00 812.066   5
  -7  -2  -9 6879.54 920.459   8
  -8   2  -9 1181.13 455.540   4
  -8  -2  -9 1634.13 445.020   5
  -8  -2  -9 1895.98 546.769   8
  -9   2  -9 3508.40 732.679   4
  -9  -2  -9 4559.55 654.108   5
  -9  -2  -9 4768.17 799.990   8
 -10   2  -9 9.81431 381.085   4
 -10  -2  -9-25.2581 308.764   5
 -10  -2  -9 532.270 361.108   8
 -11   2  -9-288.795 401.031   4
 -11  -2  -9 31.1380 303.609   5
 -11  -2  -9 208.731 363.287   8
 -12   2  -9-222.613 365.703   4
 -12  -2  -9 96.8815 263.055   5
 -12  -2  -9 200.844 333.342   8
 -13   2  -9 500.210 356.138   4
 -13  -2  -9 922.278 337.867   5
 -14   2  -9 6960.44 851.142   4
 -15   2  -9-25.0716 306.311   4
 -16   2  -9 1052.33 317.365   4
 -17   2  -9 1341.62 302.942   4
 -22  -3   9 8697.07 595.343   8
 -21  -3   9 14.3543 208.844   8
 -20  -3   9 6713.95 674.275   8
 -19  -3   9 2531.33 488.710   8
 -18  -3   9 2577.34 544.956   8
 -17  -3   9 3149.13 517.997   5
 -17  -3   9 2882.01 589.251   8
 -16  -3   9 201.902 328.104   5
 -16  -3   9-264.260 369.693   8
 -15  -3   9 47467.5 2171.73   8
 -15  -3   9 44981.2 2062.42   5
 -14  -3   9 3260.13 633.653   8
 -13  -3   9 23162.5 1541.93   8
  13   3  -9 25352.5 1510.21   7
 -12  -3   9 1286.23 450.544   8
  12   3  -9 937.105 393.588   7
 -11  -3   9 4903.55 740.832   8
  11   3  -9 5283.56 755.578   7
  10   3  -9 9430.18 1017.90   7
  -9  -3   9 73941.7 4799.43   3
   9  -3  -9 77375.2 6309.86   2
   9   3  -9 70116.7 2686.12   7
  -8  -3   9 8956.42 1716.90   3
   8  -3  -9 9953.72 2146.77   2
   8   3  -9 9585.41 1037.14   7
   7   3  -9 10291.1 1084.78   7
  -7  -3   9 10179.8 1816.57   3
   7  -3  -9 7804.78 1840.82   2
   6  -3  -9 3120.16 1325.99   2
   6   3  -9 3584.91 704.706   7
   5  -3  -9 1374.55 528.262   6
   5  -3  -9 669.890 810.538   2
   5   3  -9 838.091 406.708   7
   4  -3  -9 21234.1 2968.78   2
   4   3  -9 20266.6 1528.38   7
   4  -3  -9 19276.4 1476.51   6
   3  -3  -9 497.970 456.068   6
   3  -3  -9 922.587 792.894   2
   2  -3  -9 15322.9 1067.23   5
   2  -3  -9 16098.6 2533.15   2
   1  -3  -9 4888.23 1512.79   2
   1  -3  -9 5225.12 654.401   5
   0  -3  -9 10142.0 2010.89   2
   0  -3  -9 11373.6 937.465   5
  -1  -3  -9 5835.07 718.031   5
  -1  -3  -9 4635.64 1418.25   2
  -2  -3  -9 7891.36 842.559   5
  -2  -3  -9 7418.98 1770.98   2
  -3  -3  -9 10286.0 943.189   5
  -3  -3  -9 8160.40 1833.29   2
  -4  -3  -9 21763.5 1368.71   5
  -5  -3  -9 24747.6 1461.19   5
  -6  -3  -9 932.211 412.932   5
  -7  -3  -9 6198.06 797.121   5
  -8  -3  -9 600.455 374.024   5
  -9  -3  -9 32939.2 1615.68   5
 -10   3  -9 1902.06 448.927   4
 -10  -3  -9 2422.53 531.084   5
 -11  -3  -9 12602.1 976.290   5
 -11   3  -9 12324.0 986.152   4
 -12   3  -9 92.7181 215.244   4
 -12  -3  -9-29.7355 258.508   5
 -13   3  -9-75.0741 199.884   4
 -13  -3  -9-19.3773 230.165   5
 -14  -3  -9 9853.02 631.266   5
 -14   3  -9 7114.44 564.127   4
  19  -4  -9 7054.66 582.566   6
  18  -4  -9 2810.99 458.589   6
  17  -4  -9-60.3292 328.476   6
 -17  -4   9-3.32552 206.296   5
 -16  -4   9 10047.0 780.555   5
  16  -4  -9 10588.0 1021.52   6
  15  -4  -9-33.9840 423.639   6
 -15  -4   9-110.530 308.915   5
 -14  -4   9 12273.9 1004.43   5
  14  -4  -9 12710.0 1278.00   6
  13  -4  -9 502.069 504.298   6
 -13  -4   9 1061.16 476.847   5
 -12  -4   9 18579.3 1393.51   5
  12  -4  -9 19528.3 1660.30   6
  11  -4  -9-30.3645 522.911   6
 -11  -4   9 390.762 478.518   5
  10  -4  -9 16874.7 1542.74   6
   9  -4  -9 260.558 427.255   6
   9   4  -9 218.336 246.533   7
   8   4  -9 13858.6 1116.54   7
   8  -4  -9 13178.0 1370.37   6
   7   4  -9 16348.6 1257.44   7
   7  -4  -9 15406.9 1431.82   6
   6   4  -9 12745.9 1163.51   7
   6  -4  -9 12219.6 1286.95   6
   5   4  -9 18940.7 1447.90   7
   5  -4  -9 18504.1 1523.09   6
   4  -4  -9 1707.71 612.349   6
   4   4  -9 1341.76 515.097   7
   3   4  -9 5958.05 874.297   7
   3  -4  -9 6000.84 889.828   6
   2   4  -9 187.367 391.540   7
   2  -4  -9-379.078 549.047   6
   1  -4  -9 28562.8 1419.34   5
   1   4  -9 28927.0 1832.16   7
   1  -4  -9 27965.3 1682.27   6
   0  -4  -9 451.524 340.757   5
   0  -4  -9-426.064 463.530   6
  -1  -4  -9 17948.6 1191.72   5
  -1  -4  -9 18366.8 1313.96   6
  -2  -4  -9-11.8900 309.299   5
  -3  -4  -9 723.561 365.230   5
  -4  -4  -9 5373.45 718.146   5
  -5  -4  -9 2527.81 539.597   5
  -6  -4  -9 20558.1 1242.94   5
  -7  -4  -9 192.606 359.946   5
  -8  -4  -9 38139.8 1566.53   5
  -9  -4  -9 2456.61 465.312   5
 -10  -4  -9 33066.2 1298.62   5
 -11  -4  -9 794.172 286.458   5
 -12  -4  -9 4314.61 416.202   5
  13  -5  -9 3462.12 436.148   6
 -13  -5   9 4069.27 412.919   5
  12  -5  -9 1234.51 340.511   6
 -12  -5   9 1164.69 303.895   5
 -11  -5   9 25857.2 1154.85   5
  11  -5  -9 27066.0 1336.24   6
  10  -5  -9 3114.95 537.055   6
 -10  -5   9 3869.07 542.052   5
  -9  -5   9 18209.8 1103.00   5
   9  -5  -9 17518.2 1172.48   6
  -8  -5   9 7694.48 764.986   5
   8  -5  -9 6017.44 730.176   6
  -7  -5   9 1815.61 465.582   5
   7  -5  -9 1226.73 418.904   6
  -6  -5   9 14398.5 1150.08   5
   6  -5  -9 12121.8 1008.35   6
  -5  -5   9 3333.02 759.137   5
   5  -5  -9 3861.36 627.648   6
  -4  -5   9 16832.0 1211.54   5
   4  -5  -9 18058.7 1197.82   6
  -3  -5   9 825.126 350.132   5
   3  -5  -9 1116.85 486.959   6
   2   5  -9 19267.6 1035.54   7
   2  -5  -9 17102.7 1101.16   6
   1   5  -9 747.722 321.396   7
   1  -5  -9 1909.67 483.263   6
   0   5  -9 20767.9 1120.84   7
   0  -5  -9 20067.1 1088.31   6
  -1   5  -9 1946.46 412.229   7
  -2   5  -9 15625.0 976.542   7
  -2  -5  -9 15818.2 817.748   5
  -3  -5  -9 3686.62 434.581   5
  -3   5  -9 4000.63 512.666   7
  -4  -5  -9 3404.84 412.886   5
  -4   5  -9 2923.26 437.114   7
  -5  -5  -9 7307.30 569.158   5
  -5   5  -9 7060.64 613.871   7
  -6  -5  -9 1357.39 273.755   5
  -6   5  -9 700.138 239.903   7
  -7  -5  -9 2634.49 321.874   5
 -22   0  10 15227.5 1006.50   8
 -21   0  10 34057.9 1625.43   8
 -20   0  10 2772.83 522.639   8
 -19   0  10 27506.3 1578.47   8
 -18   0  10 35903.9 1825.38   8
 -17   0  10-82.7964 287.897   8
  17   0 -10-172.512 439.151   4
  16   0 -10 73949.2 3073.83   4
 -16   0  10 67908.1 2505.26   8
 -15   0  10 154.387 240.310   8
  15   0 -10-76.4574 543.246   2
  15   0 -10 452.149 429.269   4
  14   0 -10 7924.95 1656.93   2
 -14   0  10 8648.94 872.472   8
  14   0 -10 10471.1 1137.06   4
  13   0 -10 8979.47 999.688   4
  13   0 -10 9476.87 1785.08   2
  12   0 -10 34301.1 3274.25   2
  11   0 -10 146282. 6581.32   2
  10   0 -10 175326. 6973.68   2
   9   0 -10 267768. 8378.23   2
   8   0 -10 30024.0 2711.59   2
   7   0 -10 154943. 6051.44   2
   6   0 -10 668.529 491.630   2
   5   0 -10 367354. 8982.66   2
   4   0 -10 59758.9 3519.71   2
   3   0 -10 29436.9 2427.14   2
   2   0 -10 97600.8 4438.59   2
   1   0 -10 1118.32 613.868   2
   0   0 -10 109209. 4886.51   2
  -1   0 -10 75073.4 4165.59   2
  -2   0 -10 131978. 5685.33   2
  -6   0 -10 94835.9 3199.24   4
  -7   0 -10 173.771 342.285   4
  -8   0 -10 102804. 3491.28   4
  -9   0 -10 21656.6 1628.59   4
 -10   0 -10 47198.8 2429.83   4
 -11   0 -10 16038.7 1420.10   4
 -12   0 -10 15734.0 1390.74   4
 -13   0 -10 22821.2 1596.82   4
 -14   0 -10-132.943 349.337   4
 -15   0 -10 43442.8 1945.54   4
 -16   0 -10 202.802 237.374   4
 -17   0 -10 12432.8 837.578   4
 -18   0 -10 787.590 207.982   4
 -24  -1  10 17031.3 922.441   8
 -23  -1  10 401.773 268.822   8
 -22  -1  10 1982.55 443.041   8
 -21  -1  10 59986.6 2283.79   8
 -20  -1  10 9459.39 995.476   8
 -19  -1  10 81309.3 2872.72   8
 -18  -1  10 20075.7 1458.64   8
  17  -1 -10 30817.9 2086.67   4
  17   1 -10 32406.5 2036.83   4
 -17  -1  10 31683.8 1848.05   8
 -16  -1  10 2182.81 594.844   8
  16  -1 -10 1562.73 554.198   4
  16   1 -10 1985.06 582.213   4
 -15  -1  10 81667.0 2876.82   8
  15  -1 -10 83082.7 3226.92   4
  15  -1 -10 78284.6 5937.06   2
  15   1 -10 86577.2 3123.33   4
  14   1 -10 8467.86 1011.28   4
  14  -1 -10 7272.79 1742.00   2
  14  -1 -10 6109.67 901.896   4
  13   1 -10 92415.5 3029.20   4
  13  -1 -10 91073.7 3156.19   4
  13   1 -10 92719.2 2917.18   7
  13  -1 -10 85484.3 5926.37   2
  12  -1 -10 44014.7 2085.42   4
  12   1 -10 45293.7 1980.68   7
  12  -1 -10 43003.0 4146.05   2
  11  -1 -10 20719.2 2773.41   2
  10  -1 -10 45556.8 4058.66   2
   9  -1 -10 62750.0 4624.68   2
   8  -1 -10 124113. 6339.88   2
   7  -1 -10 21558.1 2625.98   2
   6  -1 -10 113665. 5902.85   2
   5  -1 -10 4828.65 1278.33   2
   4  -1 -10 59089.6 4106.57   2
   3  -1 -10-133.720 694.648   2
   2  -1 -10 137080. 6024.03   2
   1  -1 -10 46288.3 3532.58   2
   0  -1 -10 54672.8 3883.55   2
  -1  -1 -10 60623.5 4097.51   2
  -2  -1 -10 4904.16 984.744   3
  -2  -1 -10 6030.28 1369.92   2
  -3  -1 -10 190309. 7625.91   2
  -3  -1 -10 196290. 6450.74   3
  -4  -1 -10 6309.03 1237.91   3
  -5  -1 -10 94638.5 4889.92   3
  -5   1 -10 95724.4 3222.74   4
  -6  -1 -10-101.231 344.477   4
  -6   1 -10-226.787 412.785   4
  -6  -1 -10 346.386 291.445   5
  -6  -1 -10 155.675 609.910   3
  -7  -1 -10 13605.4 1049.94   5
  -7  -1 -10 13873.1 2073.14   3
  -7  -1 -10 12854.0 1298.24   8
  -7  -1 -10 13060.7 1168.68   4
  -7   1 -10 12279.0 1237.53   4
  -8  -1 -10 74186.2 2403.89   5
  -8  -1 -10 80490.1 5089.88   3
  -8  -1 -10 77344.6 3139.44   8
  -8  -1 -10 81169.2 2935.04   4
  -8   1 -10 78581.3 3112.43   4
  -9  -1 -10 33947.8 1642.23   5
  -9  -1 -10 35606.4 2171.98   8
  -9  -1 -10 34290.2 1938.17   4
  -9   1 -10 33468.8 2073.98   4
 -10  -1 -10 56858.5 2114.71   5
 -10  -1 -10 59968.4 2838.51   8
 -10  -1 -10 62187.6 2579.51   4
 -10   1 -10 61948.0 2784.66   4
 -11  -1 -10 34677.3 1914.99   4
 -11   1 -10 34961.1 2100.14   4
 -12  -1 -10 17807.1 1341.64   4
 -12   1 -10 18765.2 1526.35   4
 -13  -1 -10-253.768 296.396   4
 -13   1 -10 295.371 400.181   4
 -14  -1 -10 18831.1 1204.56   4
 -14   1 -10 21303.5 1488.42   4
 -15   1 -10 34.0853 305.185   4
 -16   1 -10 22248.5 1278.59   4
 -17   1 -10 261.335 224.256   4
 -18   1 -10 13924.8 737.475   4
 -24  -2  10 4978.47 454.084   8
 -23  -2  10 8570.93 696.522   8
 -22  -2  10 2421.00 464.532   8
 -21  -2  10 5778.30 714.355   8
 -20  -2  10 25393.2 1534.41   8
 -19  -2  10 32959.6 1802.78   8
 -18  -2  10 41881.6 2087.23   8
 -17  -2  10 5078.26 789.774   8
 -16  -2  10 36480.1 1996.87   8
 -15  -2  10 2702.44 612.902   8
 -14  -2  10 72588.3 2796.61   8
  14   2 -10 74836.5 2717.21   7
  14  -2 -10 67522.7 2847.74   4
  13  -2 -10 20423.5 1528.70   4
  13   2 -10 20409.9 1456.44   7
  13  -2 -10 22853.5 3432.26   2
  12  -2 -10 30691.6 1824.78   4
  12   2 -10 34188.2 1833.04   7
  12  -2 -10 36472.6 4258.62   2
 -11  -2  10 46885.3 3385.54   3
  11   2 -10 47075.2 2137.96   7
  11  -2 -10 50153.1 4877.28   2
  11  -2 -10 44517.1 2115.06   4
  10   2 -10 47486.2 2147.43   7
  10  -2 -10 45177.3 4515.39   2
 -10  -2  10 41224.5 3202.10   3
  -9  -2  10 44909.1 3302.52   3
   9  -2 -10 48690.5 4616.77   2
   9   2 -10 47333.8 2149.23   7
   8  -2 -10 22126.8 3085.70   2
   7  -2 -10 47020.6 4423.53   2
   6  -2 -10 2416.14 1150.62   2
   5  -2 -10 82037.2 5627.82   2
   4  -2 -10 2111.34 1333.53   2
   3  -2 -10 75224.0 5151.81   2
   2  -2 -10 19282.1 2647.13   2
   1  -2 -10 84753.1 5349.84   2
   0  -2 -10 31504.5 3326.87   2
  -1  -2 -10 20036.8 2668.77   2
  -2  -2 -10 113495. 2859.38   5
  -2  -2 -10 102789. 6069.76   2
  -3   2 -10 74.8913 278.412   4
  -3  -2 -10 180.983 301.054   5
  -3  -2 -10 720.277 823.925   2
  -4  -2 -10 157555. 3478.67   5
  -4  -2 -10 153439. 7642.77   2
  -4   2 -10 147252. 3949.88   4
  -5   2 -10 2675.58 620.664   4
  -5  -2 -10 3166.01 572.649   5
  -6  -2 -10 27063.4 1485.67   5
  -6   2 -10 26763.2 1773.10   4
  -7   2 -10 3402.83 676.893   4
  -7  -2 -10 3468.49 636.539   5
  -8  -2 -10 19851.1 1298.10   5
  -8   2 -10 19432.4 1581.44   4
  -9  -2 -10 16492.5 1180.07   5
  -9   2 -10 15721.8 1387.92   4
 -10  -2 -10 20390.7 1305.06   5
 -10   2 -10 20293.6 1559.18   4
 -11  -2 -10 15245.2 1093.99   5
 -11   2 -10 17287.3 1399.54   4
 -12   2 -10 2840.78 601.082   4
 -12  -2 -10 2612.20 499.337   5
 -13   2 -10 40320.0 1921.20   4
 -14   2 -10 1545.63 414.901   4
 -15   2 -10 13869.8 962.253   4
 -16   2 -10 784.755 255.546   4
 -17   2 -10 5095.67 419.508   4
 -21  -3  10 8327.49 648.187   8
 -20  -3  10 4446.82 543.097   8
 -19  -3  10 17592.7 1129.72   8
 -18  -3  10 889.752 355.509   8
 -17  -3  10 30282.7 1425.02   5
 -17  -3  10 30326.4 1630.77   8
 -16  -3  10 1898.92 488.873   5
 -16  -3  10 1277.97 408.677   8
 -15  -3  10 21741.8 1463.36   8
 -14  -3  10 201.645 353.402   8
  14   3 -10 360.563 345.825   7
 -13  -3  10 29362.7 1729.52   8
  13   3 -10 30558.1 1677.01   7
 -12  -3  10 18053.8 1361.64   8
  12   3 -10 18278.6 1339.40   7
 -11  -3  10 82355.8 2876.89   8
  11   3 -10 81192.2 2813.20   7
  10   3 -10 8630.30 990.759   7
   9   3 -10 8362.51 975.842   7
  -8  -3  10 120.773 908.468   3
   8   3 -10 856.536 448.381   7
   7   3 -10 41716.7 2180.97   7
  -7  -3  10 45705.1 3850.57   3
   7  -3 -10 46508.4 4733.14   2
   6   3 -10 86179.1 3154.55   7
   6  -3 -10 91673.9 6481.14   2
   6  -3 -10 81760.1 3115.12   6
   5   3 -10 37019.7 2115.02   7
   5  -3 -10 40230.9 2154.43   6
   4   3 -10 233762. 5233.94   7
   4  -3 -10 241286. 10066.0   2
   3  -3 -10 13401.0 1019.38   5
   3  -3 -10 11900.8 2341.31   2
   2  -3 -10 50501.1 1958.72   5
   2  -3 -10 51709.9 4631.00   2
   1  -3 -10 38929.0 1723.29   5
   1  -3 -10 36715.5 3914.66   2
   0  -3 -10 3778.61 1376.83   2
   0  -3 -10 4695.31 638.026   5
  -1  -3 -10 19316.2 1279.32   5
  -1  -3 -10 15037.3 2558.08   2
  -2  -3 -10 24517.4 1419.54   5
  -3  -3 -10 11230.6 993.350   5
  -4  -3 -10 3765.13 648.484   5
  -5  -3 -10 17366.2 1229.32   5
  -6  -3 -10 482.051 413.051   5
  -7  -3 -10 35563.2 1738.10   5
  -8  -3 -10 10816.7 970.322   5
  -9  -3 -10 20683.5 1283.06   5
 -10  -3 -10 17120.1 1104.18   5
 -10   3 -10 14740.8 1046.86   4
 -11  -3 -10 13592.3 946.453   5
 -11   3 -10 12398.0 898.502   4
 -12  -3 -10 8782.25 701.319   5
 -12   3 -10 7466.21 654.839   4
 -13  -3 -10 5513.95 507.926   5
  18  -4 -10 14423.6 880.299   6
  17  -4 -10-98.3929 290.863   6
 -17  -4  10-50.9529 180.556   5
 -16  -4  10 15755.4 905.694   5
  16  -4 -10 16934.3 1206.81   6
  15  -4 -10 165.218 346.958   6
 -15  -4  10-55.0311 309.262   5
 -14  -4  10 16311.8 1127.27   5
  14  -4 -10 15694.6 1309.80   6
  13  -4 -10 4367.59 760.945   6
 -13  -4  10 4336.51 676.709   5
 -12  -4  10 13227.4 1168.93   5
  12  -4 -10 13972.2 1328.84   6
  11  -4 -10 154.912 470.207   6
  11   4 -10 797.632 304.931   7
  10   4 -10 9977.08 882.648   7
  10  -4 -10 10051.2 1147.50   6
   9   4 -10 12413.7 1021.97   7
   9  -4 -10 10573.1 1213.85   6
   8   4 -10 8148.62 875.072   7
   8  -4 -10 7352.53 989.209   6
   7   4 -10 40275.9 1922.14   7
   7  -4 -10 37522.5 2101.11   6
   6  -4 -10 197.343 402.465   6
   6   4 -10 601.959 380.940   7
   5   4 -10 13429.2 1219.37   7
   5  -4 -10 14201.2 1275.84   6
   4  -4 -10 1464.93 533.251   6
   4   4 -10 774.774 452.102   7
   3   4 -10 14908.3 1301.02   7
   3  -4 -10 14238.4 1200.72   6
   2  -4 -10 729.596 364.721   5
   2   4 -10 323.582 393.676   7
   2  -4 -10 51.1309 422.956   6
   1  -4 -10 20829.4 1221.62   5
   1   4 -10 20035.0 1534.72   7
   0  -4 -10 6867.09 759.237   5
   0   4 -10 6179.52 910.558   7
  -1  -4 -10 12419.0 991.320   5
  -2  -4 -10 17862.0 1162.50   5
  -3  -4 -10 1333.26 442.932   5
  -4  -4 -10 24496.7 1358.72   5
  -5  -4 -10 947.144 392.376   5
  -6  -4 -10 23633.5 1278.18   5
  -7  -4 -10 1112.65 381.921   5
  -8  -4 -10 1302.49 367.856   5
  -9  -4 -10 9038.39 713.282   5
 -10  -4 -10 1251.78 319.843   5
 -11  -4 -10 16381.5 763.310   5
 -13  -5  10 9187.20 538.229   5
 -12  -5  10 8107.91 571.932   5
  12  -5 -10 8201.30 618.968   6
 -11  -5  10 14962.3 833.614   5
  11  -5 -10 14209.1 863.067   6
 -10  -5  10 7350.85 635.160   5
  10  -5 -10 6296.58 615.147   6
  -9  -5  10 220.214 264.255   5
   9  -5 -10-247.020 325.742   6
  -8  -5  10 666.461 335.724   5
   8  -5 -10 468.975 290.920   6
  -7  -5  10-0.83399 300.248   5
   7  -5 -10-276.290 331.594   6
  -6  -5  10 7505.84 790.446   5
   6  -5 -10 7366.70 721.731   6
  -5  -5  10 868.003 455.280   5
   5  -5 -10 614.957 336.074   6
  -4  -5  10 18086.2 1123.20   5
   4  -5 -10 18739.5 1054.00   6
   3   5 -10 55.5357 201.650   7
   3  -5 -10 682.480 343.388   6
   2   5 -10 4536.58 508.028   7
   1   5 -10 993.241 299.262   7
   0   5 -10-65.7050 199.496   7
  -1   5 -10 12815.7 831.887   7
  -2   5 -10 363.087 231.255   7
  -3  -5 -10 8301.05 546.248   5
  -3   5 -10 8670.59 660.199   7
  -4  -5 -10 336.111 182.069   5
  -4   5 -10 420.622 198.379   7
  -5  -5 -10 1756.00 270.349   5
  -5   5 -10 1291.83 250.701   7
 -21   0  11-58.4383 240.572   8
 -20   0  11 348.954 286.191   8
 -19   0  11-23.6939 256.635   8
 -18   0  11-529.865 423.235   8
  18   0 -11-818.059 619.409   4
 -17   0  11 134.098 285.074   8
  17   0 -11-27.9037 445.513   4
 -16   0  11-113.624 266.590   8
  16   0 -11-77.3883 455.159   4
 -15   0  11-153.015 263.362   8
  15   0 -11 143.171 393.270   4
  14   0 -11 7.19109 352.447   4
  13   0 -11-50.0213 510.469   2
  13   0 -11-391.969 448.740   4
  12   0 -11 194.355 577.078   2
  12   0 -11 9.42222 311.877   4
  11   0 -11-87.0932 562.857   2
  10   0 -11-94.5425 511.202   2
   9   0 -11 218.173 584.526   2
   8   0 -11-142.303 574.052   2
   7   0 -11 429.268 549.255   2
   6   0 -11-229.011 558.597   2
   5   0 -11-52.6695 457.233   2
   4   0 -11-257.392 412.195   2
   3   0 -11-614.581 603.821   2
   2   0 -11-218.234 531.220   2
   1   0 -11 291.095 437.118   2
   0   0 -11 522.674 597.870   2
  -1   0 -11 660.727 615.113   2
  -4   0 -11-107.606 336.389   4
  -5   0 -11-16.0395 337.923   4
  -6   0 -11 94.9682 301.623   4
  -7   0 -11 33.6918 355.561   4
  -8   0 -11 114.509 335.601   4
  -9   0 -11 117.604 342.780   4
 -10   0 -11-212.346 376.570   4
 -11   0 -11 67.6122 348.169   4
 -12   0 -11-35.2291 345.397   4
 -13   0 -11-348.244 370.852   4
 -14   0 -11-306.001 342.558   4
 -15   0 -11-234.643 280.105   4
 -16   0 -11-91.9173 206.350   4
 -17   0 -11-216.333 173.745   4
 -24  -1  11-209.157 200.052   8
 -23  -1  11-60.3903 226.323   8
 -22  -1  11 2512.75 477.081   8
 -21  -1  11 10474.0 960.644   8
 -20  -1  11 1143.05 426.560   8
 -19  -1  11 32190.1 1771.63   8
 -18  -1  11 1578.81 469.544   8
 -17  -1  11 29.8323 331.804   8
  17  -1 -11 71.7754 484.163   4
  17   1 -11-191.152 441.251   4
 -16  -1  11 414.289 345.786   8
  16  -1 -11-192.892 451.857   4
  16   1 -11 362.993 385.959   4
 -15  -1  11 1997.67 542.154   8
  15  -1 -11 1141.78 498.468   4
  15   1 -11 2225.54 655.774   4
  14  -1 -11-82.4987 546.731   2
  14  -1 -11-136.582 420.640   4
  14   1 -11 485.711 419.501   4
  13  -1 -11 8873.22 1032.12   4
  13   1 -11 10266.7 1053.90   4
  13  -1 -11 10819.3 2282.69   2
  13   1 -11 10347.4 1016.71   7
  12  -1 -11 2414.12 1037.42   2
  12   1 -11 4324.51 671.330   7
  12  -1 -11 3577.94 684.462   4
  12   1 -11 4253.90 695.219   4
  11  -1 -11 9565.36 1008.85   4
  11  -1 -11 7736.21 1804.02   2
  11   1 -11 9696.26 963.372   7
  10  -1 -11 4951.32 1475.11   2
   9  -1 -11 8290.37 1770.43   2
   8  -1 -11 11654.2 2063.36   2
   7  -1 -11-20.1011 661.674   2
   6  -1 -11 15819.1 2316.19   2
   5  -1 -11 20599.7 2581.95   2
   4  -1 -11 5521.49 1398.21   2
   3  -1 -11 1068.74 718.564   2
   2  -1 -11 1424.53 780.121   2
   1  -1 -11 30491.1 3056.48   2
   0  -1 -11 1785.51 773.972   2
  -1  -1 -11 9175.01 1753.22   2
  -2  -1 -11 2166.90 1066.11   2
  -3   1 -11 986.650 404.087   4
  -3  -1 -11 682.314 384.460   5
  -3  -1 -11 1426.16 964.135   2
  -4  -1 -11 50.2808 252.410   4
  -4   1 -11 345.563 318.108   4
  -4  -1 -11 130.598 296.344   5
  -5  -1 -11 31129.8 1668.32   5
  -5  -1 -11 32660.7 1800.63   4
  -5   1 -11 33963.4 2001.11   4
  -6  -1 -11 3504.73 636.262   4
  -6   1 -11 3528.73 702.625   4
  -6  -1 -11 3447.59 640.718   5
  -7  -1 -11 8754.12 889.553   5
  -7  -1 -11 9580.02 1006.76   4
  -7   1 -11 9397.29 1112.81   4
  -8  -1 -11 4549.76 694.246   5
  -8  -1 -11 5526.86 793.194   4
  -8   1 -11 6076.19 923.187   4
  -9  -1 -11 12324.2 1025.87   5
  -9  -1 -11 13582.4 1212.84   4
  -9   1 -11 14335.1 1371.36   4
 -10  -1 -11 520.167 352.142   4
 -10   1 -11 35.5031 369.885   4
 -11  -1 -11 3733.62 633.019   4
 -11   1 -11 3314.49 707.908   4
 -12  -1 -11-106.367 279.147   4
 -12   1 -11-65.7278 378.835   4
 -13   1 -11 4366.23 726.382   4
 -13  -1 -11 4689.77 631.060   4
 -14   1 -11 676.630 362.883   4
 -15   1 -11 3174.02 524.208   4
 -16   1 -11 275.916 234.937   4
 -17   1 -11-3.15050 136.940   4
 -23  -2  11-144.412 218.203   8
 -22  -2  11 7431.07 704.069   8
 -21  -2  11 546.830 317.553   8
 -20  -2  11 4497.51 676.084   8
 -19  -2  11 4904.79 733.073   8
 -18  -2  11 9570.63 1014.64   8
 -17  -2  11 1161.06 506.383   8
 -16  -2  11 16950.8 1379.26   8
 -15  -2  11 289.215 358.222   8
  15  -2 -11-639.765 518.207   4
 -14  -2  11 1301.59 489.941   8
  14   2 -11 1273.83 475.591   7
  14  -2 -11 230.691 380.027   4
  13   2 -11 5208.73 774.152   7
  13  -2 -11 3644.06 674.453   4
  12   2 -11 1890.28 521.724   7
  12  -2 -11 1957.26 1186.56   2
  11  -2 -11 25520.8 1633.06   4
  11  -2 -11 29794.5 3844.74   2
  11   2 -11 27906.3 1708.40   7
  10  -2 -11 951.439 938.907   2
  10   2 -11 552.565 342.533   7
  10  -2 -11 89.1468 291.868   4
  -9  -2  11 14205.3 1910.00   3
   9  -2 -11 17284.9 2896.88   2
   9   2 -11 17442.7 1348.42   7
   8  -2 -11 14930.1 2676.43   2
   8   2 -11 15463.5 1265.77   7
   7  -2 -11-78.7198 831.642   2
   7   2 -11 492.934 336.530   7
   6  -2 -11 629.337 633.415   2
   6   2 -11 1631.95 517.972   7
   5  -2 -11 1113.59 836.429   2
   5   2 -11 864.699 423.569   7
   4  -2 -11 1983.31 1086.63   2
   4   2 -11 3403.86 644.352   7
   3  -2 -11 5273.54 1563.22   2
   2  -2 -11 8391.36 834.854   5
   2  -2 -11 8517.99 1870.30   2
   1  -2 -11 7.06773 617.442   2
   1  -2 -11 820.012 381.085   5
   0  -2 -11 1448.69 815.093   2
   0   2 -11 2470.47 515.628   4
   0  -2 -11 3036.49 542.195   5
  -1   2 -11 398.317 329.466   4
  -1  -2 -11 1.95832 325.147   5
  -1  -2 -11 197.653 722.772   2
  -2  -2 -11 45624.6 1914.70   5
  -2  -2 -11 42493.8 4106.25   2
  -2   2 -11 44925.3 2126.15   4
  -3   2 -11 2755.89 608.015   4
  -3  -2 -11 3610.16 606.876   5
  -3  -2 -11 3992.77 1367.93   2
  -4  -2 -11 53684.1 2125.86   5
  -4   2 -11 50309.2 2349.37   4
  -5   2 -11 2039.12 540.857   4
  -5  -2 -11 2619.16 538.335   5
  -6   2 -11 1668.67 548.839   4
  -6  -2 -11 2594.98 548.587   5
  -7   2 -11 2323.30 586.329   4
  -7  -2 -11 2621.89 605.583   5
  -8   2 -11 143.432 338.648   4
  -8  -2 -11 128.056 369.165   5
  -9  -2 -11 6965.60 832.188   5
  -9   2 -11 6883.61 919.016   4
 -10   2 -11 27.9700 350.366   4
 -10  -2 -11 89.7811 319.388   5
 -11  -2 -11 9130.58 858.832   5
 -11   2 -11 9689.59 991.225   4
 -12   2 -11 387.804 307.650   4
 -13   2 -11 15985.4 1101.64   4
 -14   2 -11 178.305 235.968   4
 -15   2 -11 8705.82 651.611   4
 -21  -3  11 2273.33 340.605   8
 -20  -3  11 124.299 207.412   8
 -19  -3  11 10387.9 839.406   8
 -18  -3  11-179.927 275.208   8
 -17  -3  11 1658.22 410.892   5
 -17  -3  11 1506.11 422.309   8
 -16  -3  11 1660.60 448.269   5
 -16  -3  11 1073.88 379.142   8
 -15  -3  11 5040.14 725.867   8
 -14  -3  11 7439.04 881.849   8
  14   3 -11 7396.22 848.132   7
 -13  -3  11 585.731 369.706   8
  13   3 -11 178.808 284.867   7
 -12  -3  11 24150.9 1554.62   8
  12   3 -11 25508.5 1572.97   7
  11   3 -11-88.8117 294.157   7
  10   3 -11 16684.0 1347.22   7
   9   3 -11 2686.63 626.028   7
   8   3 -11 44877.7 2265.91   7
   7   3 -11 14722.1 1352.87   7
   7  -3 -11 13462.5 1298.57   6
   6   3 -11 81676.6 3100.90   7
   5   3 -11 20721.3 1646.40   7
   4   3 -11 10674.6 1200.29   7
   3  -3 -11 3449.31 601.228   5
   3   3 -11 3570.41 743.212   7
   2  -3 -11 6538.65 778.354   5
   1  -3 -11 37714.0 1731.51   5
   0  -3 -11 2172.38 511.335   5
  -1  -3 -11 4524.69 705.729   5
  -2  -3 -11 8950.65 905.468   5
  -3  -3 -11 8251.56 897.529   5
  -4  -3 -11 7068.97 851.961   5
  -5  -3 -11 9321.83 969.669   5
  -6  -3 -11 6404.57 793.886   5
  -7  -3 -11 857.067 408.760   5
  -8  -3 -11 13846.4 1071.20   5
  -9   3 -11 2134.88 410.444   4
  -9  -3 -11 2139.24 483.129   5
 -10   3 -11 808.601 290.386   4
 -10  -3 -11 946.977 379.508   5
 -11   3 -11-110.546 173.747   4
 -11  -3 -11-129.328 279.665   5
  18  -4 -11 4116.11 446.987   6
 -17  -4  11 10075.6 564.467   5
  17  -4 -11 12671.2 853.612   6
 -16  -4  11 7805.39 613.518   5
  16  -4 -11 8209.61 777.580   6
 -15  -4  11 11682.6 840.772   5
  15  -4 -11 11452.9 984.503   6
 -14  -4  11 13515.3 984.369   5
  14  -4 -11 14197.4 1152.32   6
  13  -4 -11 1138.07 445.634   6
 -13  -4  11 1220.54 438.278   5
  12  -4 -11 2208.81 591.296   6
 -12  -4  11 2363.04 585.110   5
  12   4 -11 2480.84 432.894   7
  11   4 -11 6920.04 698.303   7
  11  -4 -11 6164.77 866.760   6
  10  -4 -11 126.896 398.259   6
  10   4 -11 543.627 312.902   7
   9   4 -11 16151.0 1127.42   7
   9  -4 -11 14944.4 1286.10   6
   8  -4 -11 481.537 420.512   6
   8   4 -11 625.627 348.568   7
   7   4 -11 18797.8 1307.51   7
   7  -4 -11 17315.2 1348.37   6
   6  -4 -11 1980.55 566.909   6
   6   4 -11 1704.33 528.039   7
   5   4 -11 27516.8 1650.17   7
   5  -4 -11 24877.3 1521.51   6
   4   4 -11 15828.8 1312.56   7
   4  -4 -11 14327.9 1137.91   6
   3   4 -11 3381.22 699.949   7
   2  -4 -11 17262.6 1081.35   5
   2   4 -11 17193.9 1388.89   7
   1  -4 -11 534.169 316.441   5
   1   4 -11 357.015 355.369   7
   0  -4 -11 12617.4 981.109   5
   0   4 -11 13002.5 1216.02   7
  -1  -4 -11 473.225 316.195   5
  -1   4 -11 421.493 397.705   7
  -2  -4 -11 6910.01 764.106   5
  -3  -4 -11 4446.57 618.423   5
  -4  -4 -11 8186.69 790.293   5
  -5  -4 -11 1367.49 426.048   5
  -6  -4 -11 5155.31 606.208   5
  -7  -4 -11 3034.17 483.291   5
  -8  -4 -11 268.001 252.505   5
  -9  -4 -11 21616.0 976.113   5
 -10  -4 -11 2609.83 339.590   5
 -10   4 -11 1851.44 325.063   7
 -12  -5  11 5603.71 421.221   5
 -11  -5  11 80.3820 171.522   5
 -10  -5  11 13096.0 747.907   5
  10  -5 -11 12435.3 700.403   6
  -9  -5  11 66.8833 224.844   5
   9  -5 -11-15.1310 201.837   6
  -8  -5  11 6263.06 583.053   5
  -7  -5  11 4048.98 506.490   5
  -6  -5  11 3592.31 508.240   5
  -5  -5  11 6302.77 656.506   5
   4   5 -11 4027.40 408.445   7
   3   5 -11 2957.13 367.036   7
   2   5 -11 163.716 176.632   7
   1   5 -11 10741.0 685.129   7
   0   5 -11 368.864 203.129   7
  -1   5 -11 15403.8 810.728   7
  -2   5 -11 1718.42 293.104   7
  -3   5 -11 9215.50 582.709   7
 -21   0  12 382.571 245.969   8
 -20   0  12 46086.6 1860.92   8
 -19   0  12 8723.45 872.327   8
  18   0 -12 57580.9 2760.60   4
 -18   0  12 54734.4 2177.62   8
 -17   0  12 64102.7 2412.29   8
  17   0 -12 68356.9 2969.78   4
 -16   0  12 4775.07 711.130   8
  16   0 -12 3739.30 819.551   4
  15   0 -12 129781. 4017.26   4
 -15   0  12 129196. 3441.98   8
  14   0 -12 10022.3 1140.33   4
  13   0 -12 21927.5 1583.98   4
  12   0 -12 1462.35 471.536   4
  11   0 -12 37418.7 1952.37   4
  11   0 -12 39132.6 3626.43   2
  11   0 -12 35786.8 1775.53   7
  10   0 -12 9589.53 1778.81   2
  10   0 -12 8660.98 965.419   4
   9   0 -12 68697.8 4671.00   2
   8   0 -12 75072.3 4690.51   2
   7   0 -12 36631.6 3168.29   2
   6   0 -12 140082. 6043.58   2
   5   0 -12 154561. 6234.59   2
   4   0 -12 26378.9 2614.83   2
   3   0 -12 27904.2 2693.30   2
   2   0 -12 1872.15 758.278   2
   1   0 -12 76662.9 4489.04   2
   0   0 -12 47723.6 3684.75   2
  -2   0 -12 35667.0 1910.98   4
  -3   0 -12 42505.4 2124.83   4
  -4   0 -12 2171.93 577.295   4
  -5   0 -12 108190. 3514.86   4
  -6   0 -12 8797.79 1049.92   4
  -7   0 -12 143212. 4108.72   4
  -8   0 -12 26989.2 1819.29   4
  -9   0 -12 114860. 3645.90   4
 -10   0 -12 198.957 322.535   4
 -11   0 -12 34849.5 1891.03   4
 -12   0 -12 38221.9 1900.07   4
 -13   0 -12 11878.3 994.346   4
 -14   0 -12 18442.1 1120.82   4
 -15   0 -12 3022.17 426.786   4
 -16   0 -12 8693.68 559.482   4
 -24  -1  12 630.979 189.131   8
 -23  -1  12 16141.0 919.414   8
 -22  -1  12 19.2323 238.664   8
 -21  -1  12 25067.8 1386.02   8
 -20  -1  12 7810.23 860.691   8
 -19  -1  12 13504.7 1138.87   8
  18   1 -12 32305.8 1991.92   4
 -18  -1  12 31379.2 1763.93   8
 -17  -1  12 2734.84 607.465   8
  17  -1 -12 3178.34 773.534   4
  17   1 -12 3133.95 708.190   4
  16   1 -12 8438.59 1047.74   4
 -16  -1  12 8328.63 975.567   8
  16  -1 -12 7669.02 1063.61   4
  15  -1 -12 17685.6 1550.32   4
  15   1 -12 20435.1 1587.33   4
 -15  -1  12 19008.9 1437.55   8
  14  -1 -12 64501.1 2830.07   4
  14   1 -12 65491.1 2751.75   4
  13  -1 -12 542.434 659.085   2
  13   1 -12 2303.59 587.748   7
  13  -1 -12 1598.52 549.191   4
  13   1 -12 1851.52 486.460   4
  12  -1 -12 211034. 9586.04   2
  12  -1 -12 197903. 4630.82   4
  12   1 -12 196378. 4475.64   4
  12   1 -12 206809. 4497.22   7
  11  -1 -12 9749.11 2075.91   2
  11  -1 -12 8640.44 1053.42   4
  11   1 -12 9005.04 964.212   4
  11   1 -12 9451.63 976.875   7
  10  -1 -12 120064. 3422.87   4
  10   1 -12 124292. 3439.08   4
  10  -1 -12 122125. 7062.54   2
  10   1 -12 126014. 3402.35   7
   9  -1 -12 9620.75 1954.81   2
   9  -1 -12 9736.29 1004.07   4
   9   1 -12 10014.4 1004.79   4
   9   1 -12 9616.58 951.442   7
   8  -1 -12 35260.7 3758.93   2
   7  -1 -12 59899.7 4728.42   2
   6  -1 -12 58282.5 4544.32   2
   5  -1 -12 94768.2 5616.86   2
   4  -1 -12 5360.04 1383.28   2
   3  -1 -12 102267. 5709.54   2
   2  -1 -12 2028.33 881.567   2
   1  -1 -12 118847. 6246.92   2
   0  -1 -12 13853.1 1078.22   5
   0  -1 -12 12173.5 2103.63   2
   0   1 -12 14676.2 1222.52   4
  -1  -1 -12 51354.6 2063.94   5
  -1  -1 -12 50505.4 4185.91   2
  -1  -1 -12 50433.8 2142.10   4
  -1   1 -12 51760.1 2314.45   4
  -2  -1 -12 60991.0 2271.76   5
  -2  -1 -12 64315.9 4848.45   2
  -2  -1 -12 64406.0 2449.21   4
  -2   1 -12 68524.9 2702.75   4
  -3  -1 -12 42125.1 1914.76   5
  -3  -1 -12 45753.3 2112.93   4
  -3   1 -12 47072.6 2302.55   4
  -4  -1 -12 22729.3 1452.07   5
  -4  -1 -12 24319.6 1555.53   4
  -4   1 -12 25069.1 1727.51   4
  -5  -1 -12 53184.6 2169.53   5
  -5  -1 -12 54965.0 2366.98   4
  -5   1 -12 55597.8 2571.20   4
  -6  -1 -12 24077.4 1497.24   5
  -6  -1 -12 25521.2 1632.75   4
  -6   1 -12 25271.0 1783.68   4
  -7  -1 -12 6604.48 841.059   5
  -7  -1 -12 8152.21 931.246   4
  -7   1 -12 8284.75 1042.56   4
  -8  -1 -12 24537.3 1583.34   4
  -8   1 -12 25967.2 1785.26   4
  -9  -1 -12 15118.0 1222.01   4
  -9   1 -12 14392.4 1324.14   4
 -10  -1 -12 20685.8 1381.24   4
 -10   1 -12 23062.0 1634.61   4
 -11  -1 -12 2025.00 453.797   4
 -11   1 -12 1797.33 513.609   4
 -12  -1 -12 14219.3 1024.64   4
 -12   1 -12 15755.7 1235.76   4
 -13   1 -12 8249.79 848.171   4
 -14   1 -12 4374.23 576.881   4
 -15   1 -12 15230.5 900.414   4
 -16   1 -12 2441.52 316.302   4
 -23  -2  12 5732.79 495.196   8
 -22  -2  12 14627.7 909.018   8
 -21  -2  12 15463.4 1021.83   8
 -20  -2  12 34555.3 1637.75   8
 -19  -2  12 1117.90 404.263   8
 -18  -2  12 32693.5 1780.38   8
 -17  -2  12 9408.69 1005.42   8
 -16  -2  12 31457.4 1826.30   8
  15  -2 -12 29424.1 1915.46   4
 -15  -2  12 34375.7 1917.82   8
  14   2 -12 193.438 366.778   7
  14  -2 -12-392.452 440.697   4
  13  -2 -12 48873.4 2379.48   4
  13   2 -12 53513.8 2357.51   7
  12   2 -12 601.465 382.208   7
  12  -2 -12-168.815 499.160   4
  11  -2 -12 83493.4 2968.10   4
  11   2 -12 87953.7 3002.80   7
  10  -2 -12 648.728 786.443   2
  10   2 -12 110.603 303.699   7
  10  -2 -12-161.119 375.464   4
   9  -2 -12 3886.38 1468.34   2
   9   2 -12 4613.95 771.029   7
   8  -2 -12 125698. 7691.41   2
   8   2 -12 115345. 3532.79   7
   7  -2 -12 15897.0 2733.36   2
   7   2 -12 15314.2 1324.19   7
   6  -2 -12 134609. 7602.54   2
   6   2 -12 124881. 3726.79   7
   5  -2 -12 22204.9 1309.92   5
   5  -2 -12 25216.6 3335.36   2
   5   2 -12 22604.7 1636.98   7
   4  -2 -12 41253.4 1826.43   5
   4  -2 -12 41657.3 4116.00   2
   4   2 -12 41028.8 1890.34   4
   4   2 -12 41725.9 2162.88   7
   3   2 -12 611.103 403.824   4
   3  -2 -12 1713.04 1068.00   2
   3  -2 -12 1252.46 431.682   5
   3   2 -12 886.020 530.626   7
   2  -2 -12 79783.6 2508.24   5
   2  -2 -12 82978.9 5748.61   2
   2   2 -12 73395.1 2602.31   4
   2   2 -12 72717.8 2852.22   7
   1  -2 -12 3977.04 1418.91   2
   1   2 -12 2886.09 558.100   4
   1  -2 -12 2906.54 598.158   5
   0  -2 -12 74870.2 2546.42   5
   0  -2 -12 75664.1 5572.35   2
   0   2 -12 73850.1 2682.64   4
  -1   2 -12 3883.72 663.600   4
  -1  -2 -12 4048.02 662.320   5
  -1  -2 -12 3894.57 1406.81   2
  -2  -2 -12 46148.2 2035.88   5
  -2  -2 -12 47391.2 4498.84   2
  -2   2 -12 43936.3 2149.84   4
  -3  -2 -12 61746.2 2313.44   5
  -3   2 -12 62143.6 2571.33   4
  -4  -2 -12 15524.6 1232.39   5
  -4   2 -12 14021.2 1271.41   4
  -5  -2 -12 32085.4 1688.91   5
  -5   2 -12 31372.5 1875.76   4
  -6   2 -12-75.9551 324.874   4
  -6  -2 -12 519.768 425.840   5
  -7  -2 -12 29493.3 1625.00   5
  -7   2 -12 28799.4 1787.49   4
  -8   2 -12 137.859 301.556   4
  -8  -2 -12 193.427 346.186   5
  -9  -2 -12 19378.8 1242.64   5
  -9   2 -12 19988.0 1423.76   4
 -10   2 -12 2180.61 517.923   4
 -11   2 -12 8040.35 837.117   4
 -12   2 -12 8116.85 799.203   4
 -13   2 -12 7667.95 700.362   4
 -14   2 -12 8347.01 619.708   4
 -21  -3  12 13045.8 688.883   8
  21  -3 -12 14000.3 788.037   6
 -20  -3  12 9117.02 680.837   8
 -19  -3  12 16553.2 994.986   8
 -18  -3  12 20162.0 1180.16   8
 -17  -3  12 13361.4 890.890   5
 -17  -3  12 14207.4 1051.53   8
 -16  -3  12 36631.7 1635.55   5
 -16  -3  12 38909.3 1782.07   8
 -15  -3  12 5121.36 712.400   8
 -14  -3  12 28937.5 1645.33   8
  14   3 -12 28922.8 1584.35   7
 -13  -3  12 430.364 331.781   8
  13   3 -12 629.081 342.457   7
 -12  -3  12 22086.3 1479.05   8
  12   3 -12 22859.8 1493.36   7
  11   3 -12 189.371 327.182   7
  10   3 -12 28991.7 1759.96   7
   9  -3 -12-98.9175 434.813   6
   9   3 -12-37.4619 343.292   7
   8   3 -12 763.256 433.965   7
   7   3 -12 4119.34 775.879   7
   6   3 -12 3066.03 692.057   7
   5   3 -12 78240.7 3064.37   7
   4  -3 -12 12405.6 1039.25   5
   4   3 -12 14859.3 1433.77   7
   3  -3 -12 69913.9 2363.25   5
   3   3 -12 66828.0 2875.62   7
   2  -3 -12 796.525 446.059   5
   2   3 -12 1200.87 599.297   7
   1  -3 -12 14577.5 1105.53   5
   1   3 -12 13417.9 1314.80   7
   0  -3 -12 18216.7 1240.81   5
  -1  -3 -12 19264.8 1329.81   5
  -2  -3 -12 26134.4 1503.11   5
  -3  -3 -12 25603.5 1486.58   5
  -4  -3 -12 11683.1 1027.59   5
  -5  -3 -12 11259.5 1016.75   5
  -6  -3 -12 21039.2 1312.65   5
  -7  -3 -12 982.168 420.142   5
  -8  -3 -12 29808.2 1460.47   5
  -9  -3 -12-104.343 274.944   5
 -10  -3 -12 23636.8 1123.63   5
  17  -4 -12 1588.23 304.174   6
  16  -4 -12 216.289 243.964   6
 -16  -4  12 342.328 220.855   5
 -15  -4  12 17846.7 943.630   5
  15  -4 -12 19404.7 1112.62   6
  14  -4 -12 490.543 325.844   6
 -14  -4  12 706.154 342.845   5
 -13  -4  12 27365.8 1398.97   5
  13  -4 -12 28016.3 1476.73   6
  12  -4 -12 82.4607 313.337   6
 -12  -4  12 180.438 378.372   5
  12   4 -12 26.8384 199.325   7
  11   4 -12 10716.7 835.653   7
  11  -4 -12 9430.47 931.853   6
  10  -4 -12 4450.20 677.549   6
  10   4 -12 4387.84 605.989   7
   9   4 -12 34331.5 1574.72   7
   9  -4 -12 32038.0 1662.08   6
   8  -4 -12 1301.39 392.778   6
   8   4 -12 1124.96 393.643   7
   7   4 -12 34722.5 1726.57   7
   7  -4 -12 33290.5 1636.60   6
   6   4 -12 22747.0 1444.50   7
   5   4 -12 2337.55 597.540   7
   4   4 -12 29134.9 1682.14   7
   3   4 -12 149.756 367.433   7
   2  -4 -12 10149.1 824.289   5
   2   4 -12 10611.8 1070.45   7
   1  -4 -12 1202.47 372.655   5
   1   4 -12 1278.85 507.321   7
   0  -4 -12 20273.3 1165.46   5
   0   4 -12 19959.4 1412.33   7
  -1  -4 -12 5656.36 649.067   5
  -1   4 -12 5336.98 775.006   7
  -2  -4 -12 9681.91 815.420   5
  -2   4 -12 9400.00 975.570   7
  -3  -4 -12 4829.31 595.438   5
  -3   4 -12 4344.57 691.135   7
  -4  -4 -12 3249.84 525.246   5
  -4   4 -12 2289.17 506.309   7
  -5  -4 -12 5723.33 617.636   5
  -5   4 -12 5588.16 695.487   7
  -6  -4 -12 180.794 254.108   5
  -6   4 -12 21.6985 249.836   7
  -7  -4 -12 8347.38 646.672   5
  -7   4 -12 7016.51 679.885   7
  -8  -4 -12 3156.75 395.688   5
  -8   4 -12 1993.73 363.858   7
  -9   4 -12 11619.9 663.865   7
 -10  -5  12 6392.78 460.141   5
  -9  -5  12 6142.26 476.313   5
  -8  -5  12 1680.67 309.226   5
  -7  -5  12 5423.88 490.611   5
  -6  -5  12 1511.97 300.427   5
   3   5 -12 3876.98 364.909   7
   2   5 -12 144.883 144.712   7
   1   5 -12 2876.04 320.118   7
 -20   0  13-86.4913 235.113   8
 -19   0  13-128.036 291.867   8
 -18   0  13-234.166 331.449   8
  18   0 -13-718.677 610.697   4
 -17   0  13-196.076 330.142   8
  17   0 -13-98.9342 511.801   4
 -16   0  13 59.7050 287.648   8
  16   0 -13 226.429 434.805   4
 -15   0  13 144.840 297.759   8
  15   0 -13-18.7210 421.196   4
  14   0 -13-344.372 488.794   4
  13   0 -13-222.658 387.062   4
  12   0 -13 283.395 396.652   4
  11   0 -13-16.7526 253.435   7
  11   0 -13-279.949 400.957   4
  10   0 -13 93.4669 291.665   7
  10   0 -13 367.839 393.794   4
   9   0 -13-47.2514 276.405   7
   9   0 -13 24.2968 332.197   4
   8   0 -13-139.497 338.442   4
   7   0 -13-285.192 360.075   4
   6   0 -13 499.557 569.580   2
   6   0 -13-773.006 507.004   4
   5   0 -13 245.983 298.377   4
   5   0 -13-242.578 607.700   2
   4   0 -13 220.831 297.671   4
   4   0 -13-260.478 516.462   2
   3   0 -13-343.368 569.448   2
   3   0 -13-99.3782 260.973   4
   2   0 -13 61.5711 314.912   4
   2   0 -13 85.8576 570.644   2
   1   0 -13 106.594 268.958   4
   1   0 -13 109.529 495.156   2
   0   0 -13-65.7888 281.449   4
  -1   0 -13 106.995 311.975   4
  -2   0 -13-47.8096 336.914   4
  -3   0 -13-225.011 370.153   4
  -4   0 -13-150.885 343.118   4
  -5   0 -13-130.233 367.022   4
  -6   0 -13-181.968 357.569   4
  -7   0 -13-203.333 380.607   4
  -8   0 -13 82.4062 338.106   4
  -9   0 -13-302.004 346.936   4
 -10   0 -13 21.8386 307.550   4
 -11   0 -13-129.762 285.545   4
 -12   0 -13-30.3701 238.836   4
 -13   0 -13-260.750 263.379   4
 -14   0 -13-101.742 191.820   4
 -15   0 -13-258.097 167.373   4
 -23  -1  13 1500.64 287.408   8
 -22  -1  13 1948.02 382.808   8
 -21  -1  13 197.812 251.827   8
 -20  -1  13 4241.38 614.022   8
 -19  -1  13 7006.37 802.904   8
 -18  -1  13 3645.36 651.234   8
  18  -1 -13 3121.78 713.737   4
  18   1 -13 3413.16 716.520   4
 -17  -1  13-125.363 326.994   8
  17  -1 -13-340.116 547.842   4
  17   1 -13-29.2277 423.745   4
 -16  -1  13 190.384 321.707   8
  16   1 -13 56.4243 360.552   4
  15  -1 -13 8219.99 1085.50   4
  15   1 -13 9788.17 1134.78   4
  14  -1 -13 12686.5 1301.06   4
  14   1 -13 12739.7 1250.33   4
  13   1 -13 6691.05 905.956   4
  13   1 -13 8043.15 945.598   7
  13  -1 -13 6788.67 947.563   4
  12  -1 -13 2313.93 1026.57   2
  12   1 -13 2592.26 567.160   7
  12  -1 -13 2226.60 638.815   4
  12   1 -13 1589.17 512.384   4
  11  -1 -13-449.016 703.265   2
  11   1 -13 767.886 397.294   7
  11   1 -13 448.451 387.172   4
  10  -1 -13-542.145 754.309   2
  10   1 -13 107.789 302.287   7
  10  -1 -13 1320.22 601.709   4
  10   1 -13 301.125 342.919   4
   9   1 -13-127.215 349.294   7
   9  -1 -13 1125.91 549.966   4
   9   1 -13 287.016 355.941   4
   8  -1 -13 5193.27 1472.85   2
   8  -1 -13 6267.65 818.458   4
   8   1 -13 5962.78 804.056   4
   8   1 -13 4956.91 733.887   7
   7  -1 -13 7274.19 1731.85   2
   7  -1 -13 7325.24 873.178   4
   7   1 -13 7740.35 883.877   4
   7   1 -13 7281.83 878.150   7
   6   1 -13 49.4836 292.677   4
   6  -1 -13-158.587 558.110   2
   6   1 -13 130.687 267.935   7
   6  -1 -13-209.164 431.463   4
   5  -1 -13 18692.6 2603.29   2
   5  -1 -13 17751.2 1303.65   4
   5   1 -13 18305.4 1333.69   4
   5   1 -13 18710.2 1355.02   7
   4   1 -13 1899.11 477.956   4
   4  -1 -13 1777.01 988.129   2
   4   1 -13 2331.08 532.525   7
   4  -1 -13 1228.01 342.239   4
   3  -1 -13 4661.94 1344.33   2
   3  -1 -13 5435.94 741.532   4
   3   1 -13 4810.45 715.412   4
   3   1 -13 4641.76 714.387   7
   2  -1 -13 9399.65 1905.83   2
   2  -1 -13 10187.9 984.505   4
   2   1 -13 10694.0 1050.86   4
   2   1 -13 9125.57 951.680   7
   1  -1 -13 5432.65 1542.98   2
   1  -1 -13 4638.99 666.037   4
   1   1 -13 5680.94 799.675   4
   1   1 -13 4412.46 684.157   7
   0  -1 -13 6521.01 816.918   4
   0   1 -13 6862.81 878.420   4
   0   1 -13 6256.01 803.291   7
   0  -1 -13 6416.91 1665.90   2
  -1  -1 -13 1671.77 449.929   4
  -1   1 -13 2612.79 585.767   4
  -1  -1 -13 2391.72 1201.26   2
  -2  -1 -13 1621.81 438.379   4
  -2   1 -13 2153.01 540.687   4
  -3  -1 -13 7241.88 868.868   4
  -3   1 -13 7127.54 941.609   4
  -4  -1 -13 922.919 376.715   4
  -4   1 -13 764.978 439.392   4
  -5  -1 -13 2718.57 572.968   4
  -5   1 -13 2465.85 636.001   4
  -6  -1 -13 321.713 303.229   4
  -6   1 -13-189.812 387.853   4
  -7  -1 -13 8301.27 918.289   4
  -7   1 -13 8803.20 1037.60   4
  -8  -1 -13 297.551 279.983   4
  -8   1 -13 353.462 389.405   4
  -9   1 -13 4889.73 769.032   4
  -9  -1 -13 4313.91 650.307   4
 -10  -1 -13 135.903 236.366   4
 -10   1 -13 8.05743 353.335   4
 -11  -1 -13 571.218 251.453   4
 -11   1 -13 540.698 369.496   4
 -12   1 -13 856.273 354.415   4
 -13   1 -13 4396.77 560.678   4
 -14   1 -13 825.666 243.415   4
 -15   1 -13-101.836 135.255   4
 -23  -2  13 7054.27 494.749   8
 -22  -2  13 25529.3 1107.56   8
 -21  -2  13 5132.42 592.855   8
 -20  -2  13 1250.66 385.418   8
 -19  -2  13-243.678 324.853   8
 -18  -2  13 3017.21 578.138   8
 -17  -2  13 4877.25 753.126   8
 -16  -2  13 2795.95 594.700   8
 -15  -2  13 2853.16 634.690   8
  15  -2 -13 1477.35 491.036   4
  14   2 -13 3591.11 663.598   7
  14  -2 -13 2556.55 619.618   4
  13   2 -13-10.9017 314.392   7
  13  -2 -13-957.807 640.993   4
  12  -2 -13 18071.7 1489.82   4
  12   2 -13 18941.0 1420.44   7
  11   2 -13 64450.4 2588.31   7
  11  -2 -13 62555.1 2573.86   4
  10   2 -13 590.327 377.058   7
  10  -2 -13 812.056 397.844   4
   9  -2 -13 9565.92 1053.43   4
   9   2 -13 8770.90 941.151   4
   9   2 -13 9097.08 1027.47   7
   8  -2 -13 14791.1 2713.51   2
   8   2 -13 12981.3 1107.19   4
   8   2 -13 13642.0 1261.69   7
   7  -2 -13 12815.5 2414.53   2
   7   2 -13 12360.9 1096.84   4
   7   2 -13 11205.1 1170.87   7
   6  -2 -13 4804.85 1434.90   2
   6   2 -13 5050.90 827.955   7
   6   2 -13 4476.84 675.100   4
   5  -2 -13 926.836 721.119   2
   5   2 -13 1137.74 504.730   7
   5   2 -13 759.973 336.981   4
   4  -2 -13 11556.1 2208.28   2
   4   2 -13 10537.2 1030.26   4
   4   2 -13 10646.8 1126.53   7
   3   2 -13 1741.90 469.862   4
   3  -2 -13 1385.27 996.256   2
   3  -2 -13 1528.33 481.116   5
   3   2 -13 1801.69 550.266   7
   2  -2 -13 4307.42 1410.96   2
   2  -2 -13 4504.39 731.549   5
   2   2 -13 5376.49 736.207   4
   2   2 -13 4438.32 767.594   7
   1  -2 -13 8333.23 931.678   5
   1   2 -13 6752.46 838.062   4
   1   2 -13 7465.09 976.470   7
   0   2 -13-61.6049 306.823   4
   0  -2 -13 185.260 367.319   5
  -1   2 -13 4190.49 688.894   4
  -1  -2 -13 4334.20 729.401   5
  -2  -2 -13 21734.0 1473.34   5
  -2   2 -13 22888.0 1539.49   4
  -3  -2 -13 11537.2 1085.28   5
  -3   2 -13 11719.7 1145.41   4
  -4  -2 -13 6736.05 886.747   5
  -4   2 -13 6298.03 872.410   4
  -5  -2 -13 8114.27 936.153   5
  -5   2 -13 8082.85 955.917   4
  -6  -2 -13 9088.55 969.320   5
  -6   2 -13 10099.4 1059.00   4
  -7  -2 -13 8007.92 849.434   5
  -7   2 -13 7958.11 914.868   4
  -8   2 -13 4893.19 712.778   4
  -9   2 -13 1636.15 443.895   4
 -10   2 -13 2030.69 463.837   4
 -11   2 -13 2279.13 437.700   4
 -12   2 -13 6102.74 594.450   4
 -13   2 -13-33.0237 160.031   4
  20  -3 -13 89.6930 182.981   6
 -20  -3  13 227.869 188.626   8
 -19  -3  13 486.396 234.428   8
 -18  -3  13 4822.17 569.682   8
 -17  -3  13 565.733 275.045   5
 -17  -3  13 186.968 239.142   8
 -16  -3  13 6115.01 679.334   5
 -16  -3  13 5836.67 696.180   8
 -15  -3  13 913.750 332.165   8
 -14  -3  13 4976.66 710.985   8
  14   3 -13 5159.33 684.720   7
 -13  -3  13 5484.91 738.251   8
  13   3 -13 5103.35 728.410   7
 -12  -3  13 22163.9 1443.75   8
  12   3 -13 21199.5 1425.63   7
  11  -3 -13 1831.13 491.134   6
  11   3 -13 2019.65 547.950   7
  10   3 -13 282.047 378.243   7
   9   3 -13 8182.53 967.254   7
   8   3 -13 3464.84 706.467   7
   7   3 -13 68307.1 2754.06   7
   6   3 -13 2262.81 731.885   7
   5   3 -13 16152.9 1407.55   7
   4  -3 -13 6295.87 750.034   5
   4   3 -13 6819.51 976.596   7
   3  -3 -13 1509.97 454.050   5
   3   3 -13 1770.24 586.282   7
   2  -3 -13 3201.25 622.999   5
   2   3 -13 3121.80 698.940   7
   1  -3 -13 21879.4 1359.35   5
   1   3 -13 21136.1 1585.21   7
   0  -3 -13 2844.85 584.595   5
   0   3 -13 2461.14 624.527   7
  -1  -3 -13 10970.5 1035.67   5
  -1   3 -13 10367.2 1142.63   7
  -2  -3 -13 9256.48 943.742   5
  -3  -3 -13 48.4196 379.655   5
  -4  -3 -13 2159.50 562.610   5
  -5  -3 -13 207.569 365.046   5
  -6  -3 -13 12072.5 1004.64   5
  -7  -3 -13 2568.75 503.712   5
  -8  -3 -13 4290.15 571.543   5
  -9   3 -13 411.004 237.043   7
 -10   3 -13 815.171 237.669   7
 -15  -4  13 8617.68 617.227   5
 -14  -4  13 3699.90 479.277   5
 -13  -4  13 3345.93 536.922   5
 -12  -4  13 9137.20 836.297   5
  12   4 -13 9504.35 718.315   7
  11   4 -13 4058.89 511.791   7
  10   4 -13 14866.7 978.033   7
   9   4 -13 2132.11 448.888   7
   8   4 -13 15863.0 1073.88   7
   7   4 -13 2539.60 534.406   7
   6   4 -13 17166.0 1185.30   7
   5   4 -13 1780.99 521.762   7
   4   4 -13 19166.1 1290.96   7
   3   4 -13 1829.55 494.158   7
   2   4 -13 10827.0 994.296   7
   1   4 -13 5322.85 731.054   7
   0  -4 -13 580.105 328.628   5
   0   4 -13 160.335 301.811   7
  -1  -4 -13 7394.42 681.542   5
  -1   4 -13 6637.30 777.990   7
  -2  -4 -13 310.769 284.143   5
  -2   4 -13-120.936 314.210   7
  -3  -4 -13 8796.45 716.951   5
  -3   4 -13 8273.43 796.805   7
  -4  -4 -13 76.6738 247.902   5
  -4   4 -13-219.706 275.533   7
  -5  -4 -13 2301.83 390.427   5
  -5   4 -13 1768.32 384.919   7
  -6   4 -13 1216.30 300.794   7
  -7   4 -13 5807.21 497.894   7
 -19   0  14 13481.8 982.320   8
 -18   0  14 94.1604 220.140   8
  18   0 -14-87.2199 508.301   4
  17   0 -14 40730.7 2298.57   4
 -17   0  14 40598.9 1854.69   8
  16   0 -14 22566.4 1709.59   4
 -16   0  14 21491.7 1389.19   8
  15   0 -14 47423.5 2459.40   4
 -15   0  14 47943.6 2074.58   8
  14   0 -14 78750.4 3085.50   4
  13   0 -14 1766.89 581.590   4
  12   0 -14 34242.2 2012.88   4
  11   0 -14 652.767 428.961   4
  10   0 -14 37013.1 2056.46   4
  10   0 -14 38662.7 1853.19   7
   9   0 -14 3040.30 564.843   7
   9   0 -14 3645.21 751.803   4
   8   0 -14 103860. 3360.34   4
   8   0 -14 96468.8 2790.74   7
   7   0 -14 560.009 327.207   4
   6   0 -14 109039. 3358.79   4
   5   0 -14 5948.73 816.122   4
   4   0 -14 85387.7 2956.40   4
   3   0 -14 55315.4 2385.91   4
   2   0 -14 33828.4 1884.06   4
   1   0 -14 51151.0 2328.15   4
   0   0 -14 570.462 349.303   4
  -1   0 -14 99927.2 3274.42   4
  -2   0 -14 111.875 300.215   4
  -3   0 -14 111755. 3528.47   4
  -4   0 -14 883.489 411.735   4
  -5   0 -14 14989.4 1316.56   4
  -6   0 -14 68368.6 2731.41   4
  -7   0 -14 15403.2 1289.41   4
  -8   0 -14 71798.7 2642.29   4
  -9   0 -14 22232.0 1414.42   4
 -10   0 -14 35461.7 1693.39   4
 -11   0 -14 1233.13 374.565   4
 -12   0 -14 42450.9 1568.17   4
 -13   0 -14 6349.08 545.782   4
 -23  -1  14 4491.02 398.540   8
 -22  -1  14 23391.4 1066.38   8
 -21  -1  14 10933.5 822.604   8
 -20  -1  14 21217.2 1237.31   8
 -19  -1  14-50.3886 295.359   8
  18  -1 -14 24637.7 1697.62   4
  18   1 -14 25442.3 1657.00   4
 -18  -1  14 24821.9 1498.60   8
  17  -1 -14 7258.50 1016.73   4
  17   1 -14 8323.70 1007.03   4
 -17  -1  14 8428.01 943.467   8
  16   1 -14 8534.87 1048.33   4
 -16  -1  14 8281.95 931.878   8
  16  -1 -14 5855.07 944.681   4
  15  -1 -14 10592.4 1224.55   4
  15   1 -14 10975.6 1197.28   4
  14  -1 -14 3565.03 739.060   4
  14   1 -14 4013.46 763.489   4
  13  -1 -14 68252.7 2853.79   4
  13   1 -14 67672.9 2771.92   4
  13   1 -14 70134.1 2657.73   7
  12  -1 -14 28650.5 1839.63   4
  12   1 -14 26368.6 1704.30   4
  12   1 -14 27553.5 1683.66   7
  11  -1 -14 169586. 4298.10   4
  11   1 -14 162855. 4179.23   4
  11   1 -14 169653. 4072.70   7
  10  -1 -14 259.873 665.596   2
  10   1 -14 1262.15 506.855   7
  10   1 -14 975.616 434.121   4
   9  -1 -14 65734.8 5217.04   2
   9  -1 -14 62323.4 2589.07   4
   9   1 -14 61268.4 2556.02   4
   9   1 -14 62857.4 2454.86   7
   8  -1 -14 9313.56 1971.49   2
   8  -1 -14 11000.5 1103.27   4
   8   1 -14 10113.2 1080.41   4
   8   1 -14 10794.5 1036.58   7
   7  -1 -14 65158.1 5024.41   2
   7  -1 -14 64358.6 2578.87   4
   7   1 -14 66490.1 2666.95   4
   7   1 -14 64784.6 2514.64   7
   6  -1 -14 15349.5 2482.51   2
   6  -1 -14 13848.4 1193.07   4
   6   1 -14 14940.9 1286.72   4
   6   1 -14 14905.3 1226.87   7
   5  -1 -14 25431.3 3165.04   2
   5  -1 -14 27670.8 1657.78   4
   5   1 -14 28873.9 1736.33   4
   5   1 -14 27594.9 1651.04   7
   4  -1 -14 46018.8 4169.15   2
   4  -1 -14 42236.1 2050.36   4
   4   1 -14 45952.3 2186.40   4
   4   1 -14 43946.9 2071.01   7
   3  -1 -14 2825.98 564.414   4
   3   1 -14 2378.15 577.332   4
   3  -1 -14 2696.67 1166.56   2
   3   1 -14 2907.88 579.537   7
   2  -1 -14 65795.6 4989.93   2
   2  -1 -14 68695.3 2596.67   4
   2   1 -14 68414.0 2684.09   4
   2   1 -14 64128.5 2482.94   7
   1  -1 -14 2469.31 543.191   4
   1   1 -14 1866.53 515.327   4
   1   1 -14 2767.64 571.211   7
   1  -1 -14 2304.93 1003.72   2
   0  -1 -14 81293.3 5668.10   2
   0  -1 -14 84048.7 2888.34   4
   0   1 -14 84266.6 3049.87   4
  -1  -1 -14 2745.71 575.166   4
  -1   1 -14 2050.73 526.661   4
  -2  -1 -14 45634.6 2139.32   4
  -2   1 -14 45796.9 2279.08   4
  -3  -1 -14 57.2935 273.173   4
  -3   1 -14-190.672 338.713   4
  -4  -1 -14 24572.7 1555.84   4
  -4   1 -14 23524.6 1653.17   4
  -5  -1 -14 6804.87 840.712   4
  -5   1 -14 6963.74 924.597   4
  -6  -1 -14 25115.4 1527.92   4
  -6   1 -14 25556.9 1675.83   4
  -7  -1 -14 37986.2 1819.00   4
  -7   1 -14 39701.8 2048.32   4
  -8  -1 -14 14717.8 1098.87   4
  -8   1 -14 15953.3 1282.95   4
  -9  -1 -14 29414.0 1455.85   4
  -9   1 -14 31898.4 1696.47   4
 -10  -1 -14 157.017 189.850   4
 -10   1 -14-98.6621 289.133   4
 -11   1 -14 13780.9 994.801   4
 -12   1 -14-304.471 269.768   4
 -13   1 -14 10857.8 710.353   4
 -22  -2  14 1765.27 288.728   8
 -21  -2  14 29751.0 1229.35   8
 -20  -2  14 709.588 261.782   8
 -19  -2  14 28032.3 1420.21   8
 -18  -2  14 3657.78 600.424   8
 -17  -2  14 35494.4 1775.56   8
 -16  -2  14 8676.27 949.767   8
  15  -2 -14 14067.9 1255.36   4
 -15  -2  14 15885.5 1299.82   8
  14  -2 -14 37744.5 2038.24   4
  14   2 -14 40590.3 1995.86   7
  13  -2 -14 31148.9 1845.26   4
  13   2 -14 33977.9 1850.58   7
  12  -2 -14 43296.7 2159.69   4
  12   2 -14 47057.6 2144.58   4
  12   2 -14 46560.6 2191.70   7
  11  -2 -14 30895.6 1805.46   4
  11   2 -14 31080.8 1731.11   4
  11   2 -14 31324.2 1835.64   7
  10  -2 -14 10668.4 1059.32   4
  10   2 -14 10133.3 1017.30   4
  10   2 -14 11020.3 1099.86   7
   9   2 -14 432.357 415.881   7
   9  -2 -14 1688.23 563.785   4
   9   2 -14 667.769 334.639   4
   8   2 -14 35584.7 1876.65   4
   8   2 -14 36545.6 2002.06   7
   7   2 -14 31776.8 1757.69   4
   7   2 -14 30275.5 1851.15   7
   6   2 -14 27652.0 1632.95   4
   6   2 -14 26970.5 1779.74   7
   5   2 -14 64401.5 2488.91   4
   5   2 -14 62713.3 2670.87   7
   4   2 -14 5194.17 844.206   4
   4   2 -14 6386.05 920.992   7
   3   2 -14 36064.2 1869.83   4
   3   2 -14 34616.3 1985.14   7
   2   2 -14 573.440 371.360   4
   2   2 -14 1172.47 524.766   7
   1  -2 -14 27267.4 1651.73   5
   1   2 -14 30193.9 1739.12   4
   1   2 -14 28223.2 1799.06   7
   0   2 -14 103.105 304.833   4
   0  -2 -14 91.7417 361.830   5
   0   2 -14 337.094 413.251   7
  -1  -2 -14 55914.1 2340.13   5
  -1   2 -14 58032.7 2400.55   4
  -1   2 -14 53074.1 2424.91   7
  -2   2 -14 797.240 382.658   4
  -2  -2 -14 655.169 482.537   5
  -2   2 -14 810.361 438.428   7
  -3  -2 -14 42193.0 2011.34   5
  -3   2 -14 47382.1 2185.31   4
  -3   2 -14 42703.9 2088.12   7
  -4  -2 -14 5339.82 786.982   5
  -4   2 -14 5640.53 774.858   4
  -5   2 -14 25781.9 1577.35   4
  -6   2 -14 21858.6 1429.26   4
  -7   2 -14 9827.91 943.014   4
  -7   2 -14 8416.38 814.168   7
  -8   2 -14 16271.4 1132.46   4
  -9   2 -14 2459.75 463.694   4
 -10   2 -14 19587.6 1084.85   4
 -11   2 -14 536.152 225.900   4
 -12   2 -14 3956.04 392.278   4
 -19  -3  14 1405.06 285.227   8
 -18  -3  14 22987.4 1088.52   8
 -17  -3  14 1583.18 353.323   8
 -16  -3  14 19274.9 1074.79   5
 -16  -3  14 21362.8 1198.61   8
  16  -3 -14 20498.9 1201.37   6
 -15  -3  14 8141.94 805.096   8
  15  -3 -14 7746.14 792.617   6
 -14  -3  14 8339.62 850.518   8
  14  -3 -14 7689.15 806.375   6
 -13  -3  14 13658.4 1081.49   8
  13   3 -14 13006.9 1048.79   7
 -12  -3  14 2188.03 510.167   8
  12   3 -14 1734.25 471.193   7
  11   3 -14 17526.4 1268.71   7
  10   3 -14 185.440 377.370   7
   9   3 -14 23503.0 1521.46   7
   8   3 -14 380.997 391.870   7
   7   3 -14 21931.8 1540.88   7
   6   3 -14 1768.05 587.688   7
   5   3 -14 25579.3 1681.54   7
   4   3 -14 8598.63 1052.14   7
   3   3 -14 35038.4 2010.42   7
   2   3 -14 23610.5 1649.20   7
   1  -3 -14 1001.17 401.504   5
   1   3 -14 1179.94 514.663   7
   0  -3 -14 19531.8 1278.70   5
   0   3 -14 19620.7 1465.13   7
  -1  -3 -14 17711.8 1239.90   5
  -1   3 -14 17507.0 1349.00   7
  -2  -3 -14 29956.8 1585.06   5
  -2   3 -14 29260.6 1697.21   7
  -3  -3 -14 8405.13 850.702   5
  -3   3 -14 7572.10 894.958   7
  -4  -3 -14 28680.5 1500.88   5
  -4   3 -14 26390.4 1512.67   7
  -5  -3 -14 8497.80 814.979   5
  -5   3 -14 8036.03 826.896   7
  -6   3 -14 4347.76 570.746   7
  -7   3 -14 9189.90 750.689   7
  -8   3 -14 3353.22 428.037   7
 -15  -4  14 385.926 179.845   5
 -14  -4  14 14908.6 799.696   5
 -13  -4  14 8233.06 673.752   5
 -12  -4  14 11723.2 866.725   5
  11   4 -14 1388.78 317.604   7
  10   4 -14 1125.47 310.381   7
   9   4 -14 13554.1 898.303   7
   8   4 -14 11443.1 869.359   7
   7   4 -14 31294.8 1433.17   7
   6   4 -14 45267.5 1763.64   7
   5   4 -14 8537.84 831.795   7
   4   4 -14 11007.2 927.251   7
   3   4 -14 6766.82 740.918   7
   2   4 -14 2118.65 476.081   7
   1   4 -14 15762.4 1072.70   7
   0   4 -14 3401.55 534.436   7
  -1   4 -14 8468.00 780.707   7
  -2   4 -14 1104.86 335.261   7
  -3   4 -14 1916.61 367.357   7
  -4   4 -14 2110.75 358.423   7
  -5   4 -14 776.163 232.779   7
  19   0 -15-1114.59 601.708   4
 -18   0  15-6.96786 244.573   8
  18   0 -15-455.796 565.507   4
 -17   0  15-319.352 276.327   8
  17   0 -15-1013.64 628.760   4
 -16   0  15-182.732 251.857   8
  16   0 -15-243.646 511.989   4
 -15   0  15-170.717 247.672   8
  15   0 -15-196.495 490.279   4
  14   0 -15-436.956 483.512   4
  13   0 -15-123.513 380.057   4
  12   0 -15 819.499 541.800   4
  11   0 -15 590.343 526.701   4
  10   0 -15 458.788 517.447   4
   9   0 -15 134.148 244.378   7
   9   0 -15 403.928 459.120   4
   8   0 -15 16.7029 367.091   4
   7   0 -15-181.944 453.555   4
   6   0 -15-868.783 558.736   4
   5   0 -15-891.435 652.966   4
   4   0 -15 141.578 320.523   4
   3   0 -15 63.7153 344.227   4
   2   0 -15-353.465 379.266   4
   1   0 -15 53.4191 311.154   4
   0   0 -15 97.8873 326.537   4
  -1   0 -15 125.685 345.989   4
  -2   0 -15 40.7827 349.587   4
  -3   0 -15-121.282 386.680   4
  -4   0 -15-456.984 379.679   4
  -5   0 -15-353.262 436.414   4
  -6   0 -15-263.699 352.595   4
  -7   0 -15-212.349 329.575   4
  -8   0 -15-37.4710 302.798   4
  -9   0 -15 51.3538 250.659   4
 -10   0 -15-90.7327 243.467   4
 -11   0 -15-177.775 213.183   4
 -12   0 -15 14.7704 136.838   4
 -22  -1  15-35.1367 153.883   8
 -21  -1  15 238.496 207.178   8
 -20  -1  15 1767.45 382.261   8
 -19  -1  15-54.6107 277.292   8
  18   1 -15 8160.68 919.157   4
 -18  -1  15 8940.16 876.549   8
  18  -1 -15 7544.28 914.188   4
 -17  -1  15 182.502 279.502   8
  17  -1 -15 40.5076 448.168   4
  17   1 -15-39.5445 443.582   4
 -16  -1  15 2537.14 559.752   8
  16  -1 -15 1470.31 516.794   4
  16   1 -15 2386.13 608.850   4
  15  -1 -15-458.731 557.413   4
  15   1 -15 427.946 449.322   4
  14  -1 -15 3506.34 758.317   4
  14   1 -15 4093.33 749.039   4
  13  -1 -15 9259.95 1112.69   4
  13   1 -15 8810.72 1035.19   4
  13   1 -15 9573.70 1011.21   7
  12   1 -15 3527.48 644.314   7
  12   1 -15 3260.23 686.837   4
  11   1 -15 4664.62 731.081   7
  11   1 -15 3715.70 693.882   4
  10  -1 -15 4848.05 992.646   4
  10   1 -15 3715.38 645.538   7
  10   1 -15 2574.83 595.402   4
   9  -1 -15 14364.9 1316.86   4
   9   1 -15 11868.4 1180.49   4
   9   1 -15 12949.7 1138.97   7
   8   1 -15-79.0586 301.730   7
   8  -1 -15 383.388 460.829   4
   8   1 -15 202.697 385.522   4
   7   1 -15-183.716 336.072   7
   7  -1 -15-356.370 426.988   4
   7   1 -15-0.68321 343.416   4
   6  -1 -15 6852.99 878.858   4
   6   1 -15 5991.52 864.350   4
   6   1 -15 6179.81 787.829   7
   5   1 -15 5374.20 808.297   4
   5   1 -15 6356.92 804.274   7
   5  -1 -15 5434.65 730.559   4
   4   1 -15 1743.88 517.797   4
   4   1 -15 1785.30 470.058   7
   4  -1 -15 736.637 456.600   4
   3  -1 -15 13656.9 1127.10   4
   3   1 -15 14755.2 1282.88   4
   3   1 -15 14601.3 1189.01   7
   2  -1 -15 13728.5 1207.21   4
   2   1 -15 14277.2 1265.97   4
   2   1 -15 13698.2 1136.18   7
   1  -1 -15 2104.46 506.879   4
   1   1 -15 1494.90 449.914   4
   0  -1 -15 4023.02 666.939   4
   0   1 -15 3292.39 638.160   4
  -1  -1 -15 6416.55 816.756   4
  -1   1 -15 5744.17 828.850   4
  -2  -1 -15 15326.9 1230.77   4
  -2   1 -15 15833.2 1327.87   4
  -3  -1 -15 9362.32 957.480   4
  -3   1 -15 9898.29 1048.80   4
  -4  -1 -15 10631.1 1002.77   4
  -4   1 -15 10148.5 1058.09   4
  -5  -1 -15 3781.84 595.355   4
  -5   1 -15 4330.78 720.205   4
  -6  -1 -15 241.514 264.327   4
  -6   1 -15-55.5933 365.337   4
  -7  -1 -15 603.460 280.424   4
  -7   1 -15 854.978 403.815   4
  -8  -1 -15 224.087 231.228   4
  -8   1 -15-59.2837 290.940   4
  -9   1 -15-274.945 291.226   4
 -10   1 -15-91.2772 276.902   4
 -11   1 -15 1046.16 289.544   4
 -12   1 -15 443.486 183.962   4
 -21  -2  15 4372.12 439.094   8
 -20  -2  15 1578.98 332.627   8
 -19  -2  15-240.304 261.502   8
 -18  -2  15 583.579 288.481   8
 -17  -2  15-272.400 307.993   8
 -16  -2  15 7599.13 844.160   8
 -15  -2  15 87.0127 336.813   8
  15  -2 -15-414.902 433.627   4
  14  -2 -15 6549.18 854.662   4
  14   2 -15 8853.14 955.886   7
  13   2 -15 930.163 441.788   7
  13  -2 -15-310.755 543.759   4
  13   2 -15 1103.46 405.197   4
  12   2 -15 4118.78 689.047   7
  12  -2 -15 1964.33 503.432   4
  12   2 -15 4063.08 650.248   4
  11   2 -15 1048.40 466.923   7
  11  -2 -15 317.292 419.947   4
  11   2 -15 976.528 340.796   4
  10  -2 -15 22984.3 1507.62   4
  10   2 -15 22035.3 1441.43   4
  10   2 -15 23767.7 1559.01   7
   9   2 -15-203.728 346.203   7
   9  -2 -15 880.507 526.436   4
   9   2 -15 158.687 259.547   4
   8  -2 -15 34128.8 1803.45   4
   8   2 -15 31449.5 1737.60   4
   8   2 -15 33064.4 1854.40   7
   7   2 -15 1738.70 566.320   7
   7   2 -15 1756.93 494.615   4
   6   2 -15 261.804 427.560   7
   6   2 -15 577.342 382.618   4
   5   2 -15 3694.87 707.010   7
   5   2 -15 3630.35 649.356   4
   4   2 -15-158.394 342.038   7
   4   2 -15-263.293 387.784   4
   3   2 -15 7823.08 907.448   4
   3   2 -15 7563.25 956.677   7
   2   2 -15 701.988 367.280   4
   2   2 -15 1105.00 469.258   7
   1   2 -15 4236.50 691.954   4
   1   2 -15 4559.24 744.129   7
   0   2 -15 7014.36 859.765   4
   0   2 -15 6488.78 850.896   7
  -1   2 -15 2139.93 511.173   4
  -1   2 -15 1738.01 497.082   7
  -2   2 -15 2715.87 564.700   4
  -2   2 -15 2426.88 533.477   7
  -3   2 -15 1696.50 467.104   4
  -3   2 -15 1607.87 449.465   7
  -4   2 -15 424.009 303.035   4
  -4   2 -15 946.438 369.425   7
  -5   2 -15-93.6426 285.623   4
  -5   2 -15-95.0672 224.743   7
  -6   2 -15 4160.88 590.634   4
  -7   2 -15 44.1888 227.859   4
  -8   2 -15 243.062 210.462   4
  -9   2 -15-64.3370 207.295   4
 -10   2 -15 310.034 179.259   4
 -18  -3  15 718.060 224.729   8
 -17  -3  15 4708.60 508.664   8
 -16  -3  15-56.0958 228.718   5
 -16  -3  15-246.492 250.929   8
 -15  -3  15 4438.36 568.832   8
 -14  -3  15-11.1773 231.029   8
 -13  -3  15 4898.47 636.308   8
  13   3 -15 5261.13 675.914   7
 -12  -3  15 618.238 344.858   8
  12   3 -15 495.753 341.349   7
  11   3 -15 9443.47 902.841   7
  10   3 -15 15449.1 1180.22   7
   9   3 -15 13980.2 1159.43   7
   8   3 -15 980.850 443.131   7
   7   3 -15 9278.83 983.157   7
   6   3 -15 4425.43 724.506   7
   5   3 -15 672.001 446.210   7
   4   3 -15 16901.6 1318.32   7
   3   3 -15 1668.05 528.709   7
   2   3 -15 158.194 372.435   7
   1   3 -15 4144.74 682.330   7
   0   3 -15 2900.10 600.825   7
  -1   3 -15 5296.57 710.716   7
  -2   3 -15 14422.9 1105.55   7
  -3   3 -15 165.631 264.455   7
  -4   3 -15 5598.29 642.757   7
  -5   3 -15 486.727 259.397   7
  -6   3 -15 5.13200 181.112   7
 -13  -4  15 1376.00 304.550   5
 -12  -4  15 2876.16 419.588   5
  11   4 -15 4573.74 453.263   7
  10   4 -15 22.2734 179.860   7
   9   4 -15 31446.9 1234.91   7
   8   4 -15 11978.9 807.970   7
   7   4 -15 16688.0 964.813   7
   6   4 -15 16972.0 985.011   7
   5   4 -15 537.133 320.503   7
   4   4 -15 57.3081 226.403   7
   3   4 -15 8469.66 717.603   7
   2   4 -15 50.8639 210.971   7
   1   4 -15 12408.8 841.053   7
   0   4 -15 800.500 279.313   7
  -1   4 -15 4402.38 486.210   7
  -2   4 -15 5453.42 500.030   7
  -3   4 -15 2404.83 314.686   7
  18   0 -16 27388.6 1672.37   4
 -17   0  16 678.495 281.074   8
  17   0 -16-119.668 536.605   4
  16   0 -16 44350.3 2278.63   4
 -16   0  16 42614.4 1787.75   8
 -15   0  16 1125.55 376.033   8
  15   0 -16 861.785 524.995   4
  14   0 -16 60866.8 2668.25   4
  13   0 -16 36121.9 2065.99   4
  12   0 -16 61686.9 2701.98   4
  11   0 -16 27788.3 1819.08   4
  10   0 -16 10555.5 1194.27   4
   9   0 -16 67072.7 2765.26   4
   8   0 -16 5438.14 853.563   4
   7   0 -16 79118.2 2962.43   4
   6   0 -16-1236.74 664.789   4
   5   0 -16 28511.5 1779.15   4
   4   0 -16 19886.1 1479.95   4
   3   0 -16 63392.4 2652.87   4
   2   0 -16 15746.0 1327.28   4
   1   0 -16 20547.4 1516.76   4
   0   0 -16 78067.3 2876.89   4
  -1   0 -16 10871.2 1086.32   4
  -2   0 -16 88716.7 3007.81   4
  -3   0 -16 36392.5 1922.26   4
  -4   0 -16 4967.27 735.320   4
  -5   0 -16 1233.21 443.201   4
  -6   0 -16 69.1891 279.660   4
  -7   0 -16 30182.5 1513.70   4
  -8   0 -16 817.672 298.435   4
  -9   0 -16 8228.58 696.866   4
 -10   0 -16 3204.74 406.872   4
 -11   0 -16 2168.39 283.584   4
 -21  -1  16 15924.5 794.596   8
 -20  -1  16 6022.09 572.095   8
 -19  -1  16 20105.1 1111.81   8
 -18  -1  16 3113.06 505.326   8
  18  -1 -16 2191.03 534.642   4
  18   1 -16 1768.54 444.826   4
  17  -1 -16 26774.3 1654.34   4
  17   1 -16 25825.7 1580.22   4
 -17  -1  16 26153.4 1446.74   8
  16  -1 -16 9767.37 1059.74   4
  16   1 -16 10520.7 1076.92   4
 -16  -1  16 11215.7 1016.38   8
  15  -1 -16 35640.1 2010.63   4
  15   1 -16 38251.4 1983.90   4
  14  -1 -16 4445.06 825.137   4
  14   1 -16 3866.25 679.446   4
  13  -1 -16 51344.8 2406.40   4
  13   1 -16 50155.4 2314.89   4
  12   1 -16 97.2576 330.508   7
  12   1 -16 1063.26 483.534   4
  11   1 -16 125.339 319.253   7
  11   1 -16 314.613 400.044   4
  10  -1 -16 41710.6 2164.66   4
  10   1 -16 38068.9 2029.36   4
  10   1 -16 35076.6 1821.79   7
   9   1 -16 2866.58 589.009   7
   9   1 -16 3367.58 768.314   4
   8  -1 -16 132619. 3715.07   4
   8   1 -16 129677. 3805.52   4
   8   1 -16 129735. 3444.68   7
   7   1 -16 1418.66 436.417   7
   7  -1 -16 1829.49 619.835   4
   7   1 -16 1282.80 537.904   4
   6  -1 -16 50036.1 2315.25   4
   6   1 -16 48525.8 2310.44   4
   6   1 -16 48665.1 2084.87   7
   5   1 -16 373.316 339.219   7
   5  -1 -16-421.403 556.926   4
   5   1 -16-461.160 596.285   4
   4  -1 -16 18894.4 1375.92   4
   4   1 -16 19822.4 1476.12   4
   4   1 -16 18440.1 1263.84   7
   3  -1 -16 13229.7 1127.11   4
   3   1 -16 14647.7 1272.96   4
   2  -1 -16 20962.9 1437.64   4
   2   1 -16 24911.1 1632.84   4
   1  -1 -16 24003.3 1512.30   4
   1   1 -16 26115.8 1669.35   4
   0  -1 -16 18264.0 1336.41   4
   0   1 -16 17943.5 1392.51   4
  -1  -1 -16 21247.5 1421.83   4
  -1   1 -16 20321.8 1457.93   4
  -2  -1 -16 1920.56 468.368   4
  -2   1 -16 1452.45 476.964   4
  -3  -1 -16 26657.1 1507.26   4
  -3   1 -16 26673.9 1634.22   4
  -4  -1 -16 8695.80 861.891   4
  -4   1 -16 9495.98 971.879   4
  -5  -1 -16 34366.5 1597.80   4
  -5   1 -16 36310.7 1784.90   4
  -6  -1 -16 1315.32 345.185   4
  -6   1 -16 1385.17 408.968   4
  -7  -1 -16 42872.4 1560.25   4
  -7   1 -16 43746.2 1793.70   4
  -8   1 -16 7058.62 700.272   4
  -9   1 -16 9122.33 721.416   4
 -10   1 -16 25188.4 1059.41   4
 -11   1 -16 2443.66 302.275   4
 -20  -2  16 24011.8 999.833   8
 -19  -2  16 2282.31 378.789   8
 -18  -2  16 23548.8 1197.24   8
 -17  -2  16 335.284 267.182   8
 -16  -2  16 12377.1 1002.99   8
  15  -2 -16 13692.3 1109.59   4
 -15  -2  16 14936.7 1142.39   8
  14  -2 -16 30886.9 1701.28   4
  13   2 -16 18361.2 1221.45   4
  13   2 -16 16410.3 1224.30   7
  12  -2 -16 13515.2 1154.79   4
  12   2 -16 15434.0 1161.50   4
  12   2 -16 15879.1 1221.72   7
  11  -2 -16 12620.2 1114.03   4
  11   2 -16 14084.7 1096.87   4
  11   2 -16 14783.9 1176.71   7
  10  -2 -16 18996.5 1339.90   4
  10   2 -16 20210.8 1349.69   4
  10   2 -16 21230.8 1420.92   7
   9  -2 -16 16973.3 1254.11   4
   9   2 -16 16471.1 1231.94   4
   9   2 -16 17192.7 1280.10   7
   8  -2 -16 11803.4 1058.70   4
   8   2 -16 8679.77 941.309   4
   8   2 -16 9183.39 976.941   7
   7   2 -16 34509.3 1798.49   4
   7   2 -16 33500.1 1812.18   7
   6   2 -16 3473.24 674.201   7
   6   2 -16 4616.55 714.435   4
   5   2 -16 60105.9 2354.50   4
   5   2 -16 58567.2 2381.68   7
   4   2 -16 4477.44 770.552   7
   4   2 -16 3239.06 624.808   4
   3   2 -16 16136.5 1221.51   4
   3   2 -16 16558.2 1284.42   7
   2   2 -16 11803.9 1066.21   4
   2   2 -16 11563.3 1069.19   7
   1   2 -16 326.400 298.749   4
   1   2 -16 299.511 321.172   7
   0   2 -16 32577.8 1684.95   4
   0   2 -16 29513.6 1612.68   7
  -1   2 -16 3318.28 588.613   4
  -1   2 -16 3239.52 563.474   7
  -2   2 -16 26388.4 1469.55   4
  -2   2 -16 24103.1 1365.82   7
  -3   2 -16 1749.52 438.992   4
  -3   2 -16 1571.55 401.602   7
  -4   2 -16 29511.8 1465.88   4
  -5   2 -16 922.233 346.580   4
  -6   2 -16 18460.9 1066.64   4
  -7   2 -16 2042.42 384.273   4
  -8   2 -16 10002.8 679.223   4
  -9   2 -16 7184.41 499.515   4
 -17  -3  16 12705.7 705.563   8
 -16  -3  16-141.311 167.496   5
 -16  -3  16 317.644 196.060   8
 -15  -3  16 17504.1 965.090   8
 -14  -3  16 2607.52 436.868   8
 -13  -3  16 21871.9 1179.52   8
 -12  -3  16 17214.6 1076.18   8
  12   3 -16 16573.7 1062.35   7
  11   3 -16 13387.3 1001.15   7
  10   3 -16 23630.3 1341.48   7
   9   3 -16 2769.86 560.296   7
   8   3 -16 32248.1 1596.65   7
   7   3 -16 1839.08 518.620   7
   6   3 -16 11471.8 1009.30   7
   5   3 -16 596.116 377.381   7
   4   3 -16 19048.3 1270.77   7
   3   3 -16 5139.26 701.318   7
   2   3 -16 17297.7 1192.00   7
   1   3 -16 18774.9 1203.00   7
   0   3 -16 862.180 360.132   7
  -1   3 -16 21567.4 1211.45   7
  -2   3 -16 597.911 276.407   7
  -3   3 -16 12503.9 823.931   7
  -4   3 -16 58.3752 167.192   7
 -12  -4  16 5124.32 419.092   5
 -11  -4  16 130.273 192.828   5
  10   4 -16 30.9054 138.071   7
   9   4 -16 2724.40 337.256   7
   8   4 -16 3477.43 396.623   7
   7   4 -16 17528.1 863.637   7
   6   4 -16 307.374 232.476   7
   5   4 -16 9020.60 632.094   7
   4   4 -16 2660.50 372.825   7
   3   4 -16 715.459 244.031   7
   2   4 -16 3146.01 378.256   7
   1   4 -16 2549.05 332.326   7
   0   4 -16 5825.23 451.704   7
  18   0 -17-721.218 492.352   4
  17   0 -17-1152.11 585.122   4
 -16   0  17 14.0207 193.452   8
  16   0 -17-404.392 481.227   4
 -15   0  17 284.905 262.981   8
  15   0 -17 103.432 413.623   4
  14   0 -17 246.317 433.489   4
  13   0 -17 1318.14 634.081   4
  12   0 -17 3667.83 847.916   4
  11   0 -17 3923.71 879.726   4
  10   0 -17 2047.48 836.211   4
   9   0 -17 859.237 600.201   4
   8   0 -17 464.362 516.888   4
   7   0 -17-233.095 499.221   4
   6   0 -17-931.961 622.996   4
   5   0 -17-985.549 671.910   4
   4   0 -17-1530.77 797.980   4
   2   0 -17-40.1550 379.193   4
   1   0 -17-225.750 336.639   4
   0   0 -17-58.8926 330.399   4
  -1   0 -17 35.8558 338.909   4
  -2   0 -17 20.4244 292.891   4
  -3   0 -17-94.1038 288.784   4
  -4   0 -17 66.1249 258.152   4
  -5   0 -17 47.4377 244.730   4
  -6   0 -17-78.4061 226.052   4
  -7   0 -17 33.4708 199.195   4
  -8   0 -17-121.615 195.205   4
  -9   0 -17 165.639 175.669   4
 -20  -1  17 1126.20 248.656   8
 -19  -1  17 636.971 239.604   8
 -18  -1  17 760.593 262.129   8
  18   1 -17 717.809 320.659   4
 -17  -1  17 2678.38 474.018   8
  17  -1 -17 1738.26 434.831   4
  17   1 -17 1811.94 456.825   4
 -16  -1  17 319.241 311.150   8
  16  -1 -17-849.653 556.483   4
  16   1 -17-642.932 503.697   4
 -15  -1  17 5555.59 714.064   8
  15  -1 -17 4976.47 747.448   4
  15   1 -17 5359.85 740.223   4
  14  -1 -17 9795.59 1047.07   4
  14   1 -17 10017.2 1015.70   4
  13  -1 -17 9938.81 1058.56   4
  13   1 -17 9997.50 1042.02   4
  12  -1 -17 18131.6 1401.60   4
  12   1 -17 18754.7 1421.15   4
  11   1 -17 28358.2 1744.00   4
  11   1 -17 25541.7 1501.71   7
  10   1 -17 1289.79 428.662   7
  10   1 -17 2605.10 763.227   4
   9   1 -17 581.498 298.581   7
   9   1 -17 1951.59 658.593   4
   8   1 -17 3403.03 563.980   7
   8   1 -17 2927.11 701.011   4
   7   1 -17 269.690 253.179   7
   7   1 -17 62.4093 437.185   4
   6   1 -17 4849.55 635.264   7
   6  -1 -17 5256.02 802.291   4
   6   1 -17 4145.27 687.986   4
   5   1 -17 1255.52 322.679   7
   5  -1 -17 1201.81 464.458   4
   4  -1 -17 1339.65 445.870   4
   4   1 -17 992.009 615.626   4
   3   1 -17-941.128 618.683   4
   3  -1 -17-458.801 491.456   4
   2   1 -17 45.8104 313.864   4
   2  -1 -17-1113.87 641.366   4
   1   1 -17 6053.40 804.569   4
   1  -1 -17 4483.79 560.516   4
   0   1 -17 756.193 395.044   4
   0  -1 -17-1800.83 679.416   4
  -1   1 -17 3618.15 629.839   4
  -1  -1 -17 764.126 466.715   4
  -2  -1 -17-564.706 484.845   4
  -2   1 -17 470.747 371.059   4
  -3  -1 -17 1061.52 260.306   4
  -3   1 -17 561.392 335.942   4
  -4  -1 -17 12655.2 907.400   4
  -4   1 -17 13544.8 1045.69   4
  -5  -1 -17 7308.49 631.335   4
  -5   1 -17 8286.89 797.853   4
  -6   1 -17 3272.50 511.606   4
  -7   1 -17 2601.60 423.546   4
  -8   1 -17 211.836 173.490   4
  -9   1 -17 1977.27 296.602   4
 -19  -2  17 1194.10 251.114   8
 -18  -2  17 135.422 195.383   8
 -17  -2  17 3568.50 478.333   8
 -16  -2  17 942.212 321.003   8
 -15  -2  17 12440.5 956.360   8
  14  -2 -17 17051.2 1153.26   4
 -14  -2  17 19965.7 1261.30   8
  13  -2 -17 3198.05 511.755   4
  13   2 -17 3847.92 542.102   4
  12   2 -17 825.432 374.490   7
  12   2 -17 848.714 340.907   4
  11   2 -17-68.1658 267.429   7
  11  -2 -17-797.063 450.462   4
  11   2 -17 64.9682 273.172   4
  10   2 -17 1311.13 423.746   7
  10  -2 -17 467.982 339.376   4
  10   2 -17 1814.31 494.515   4
   9  -2 -17 9824.70 913.847   4
   9   2 -17 12217.1 1036.51   4
   9   2 -17 11373.5 1004.96   7
   8   2 -17 125.498 271.548   7
   8   2 -17 1064.97 470.368   4
   7   2 -17 9509.50 954.683   4
   7   2 -17 8007.52 870.889   7
   6   2 -17 14614.2 1139.55   4
   6   2 -17 12768.8 1064.07   7
   5   2 -17 1011.02 432.831   7
   5   2 -17 428.516 332.137   4
   4   2 -17 19615.0 1270.30   4
   4   2 -17 19851.6 1273.49   7
   3   2 -17 6111.20 739.142   7
   3   2 -17 4404.39 539.715   4
   2   2 -17 2630.29 491.389   7
   2   2 -17 821.306 435.205   4
   1   2 -17 397.942 261.869   7
   1   2 -17-1927.93 663.608   4
   0   2 -17-13.5487 353.227   4
   0   2 -17-118.467 239.369   7
  -1   2 -17 569.003 295.609   4
  -1   2 -17 442.560 230.371   7
  -2   2 -17-108.813 255.741   4
  -3   2 -17 284.766 241.426   4
  -4   2 -17 1519.90 352.204   4
  -5   2 -17 819.591 268.157   4
  -6   2 -17 2687.34 377.543   4
  -7   2 -17 15.3059 129.214   4
 -16  -3  17 3433.50 348.860   8
 -15  -3  17 529.900 202.393   5
 -15  -3  17 363.148 180.868   8
 -14  -3  17 6506.29 563.754   8
 -13  -3  17 958.634 274.962   8
 -12  -3  17 1738.72 357.252   8
  12   3 -17 1526.65 346.617   7
 -11  -3  17 347.769 266.681   8
  11   3 -17-65.5671 225.105   7
  10   3 -17 2654.26 445.241   7
   9   3 -17 657.819 302.177   7
   8   3 -17 2614.88 476.313   7
   7   3 -17 5748.40 649.330   7
   6   3 -17 3802.23 544.463   7
   5   3 -17 1744.98 416.107   7
   4   3 -17 9351.36 799.495   7
   3   3 -17 4979.71 603.684   7
   2   3 -17 262.638 236.743   7
   1   3 -17 10250.7 772.679   7
   0   3 -17 61.7699 204.595   7
  -1   3 -17 4894.27 495.896   7
  -2   3 -17 97.3038 149.511   7
  18   0 -18 2221.52 451.791   4
  17   0 -18 19511.8 1274.30   4
  16   0 -18-370.367 484.428   4
  15   0 -18 57197.5 2323.72   4
 -15   0  18 52676.3 1755.93   8
 -14   0  18 936.670 317.834   8
  14   0 -18 1131.97 509.799   4
  13   0 -18 58964.5 2395.65   4
  12   0 -18 9365.71 1130.26   4
  11   0 -18 34057.9 1922.67   4
  10   0 -18 30020.9 1822.87   4
   9   0 -18 37671.8 2047.12   4
   8   0 -18 41594.3 2095.95   4
   7   0 -18 2069.66 632.053   4
   6   0 -18 70026.0 2667.58   4
   5   0 -18-2000.00 740.473   4
   4   0 -18 33724.0 1801.00   4
   3   0 -18-1504.40 835.338   4
   2   0 -18 17845.0 1191.97   4
   1   0 -18 1822.18 563.014   4
   0   0 -18 57151.4 2221.72   4
  -1   0 -18-96.0042 273.653   4
  -2   0 -18 11062.7 935.238   4
  -3   0 -18 2510.42 478.303   4
  -4   0 -18 382.409 285.750   4
  -5   0 -18 32598.2 1365.78   4
  -6   0 -18 1178.27 292.346   4
  -7   0 -18 18272.6 839.806   4
 -19  -1  18 6233.92 483.261   8
 -18  -1  18 14983.0 832.688   8
 -17  -1  18 685.053 262.601   8
  17   1 -18 231.853 251.100   4
  16  -1 -18 20143.0 1298.68   4
  16   1 -18 19662.7 1247.81   4
 -16  -1  18 21290.4 1152.80   8
 -15  -1  18 2060.97 452.187   8
  15  -1 -18 767.929 344.039   4
  15   1 -18 1135.97 391.207   4
  14  -1 -18 46008.8 2014.31   4
  14   1 -18 46719.6 2014.53   4
  13  -1 -18 4923.49 748.569   4
  13   1 -18 4397.55 700.360   4
  12  -1 -18 20791.1 1412.28   4
  12   1 -18 22439.6 1460.76   4
  11   1 -18 3302.96 827.672   4
  11  -1 -18 2787.13 690.676   4
  10  -1 -18 15689.1 1351.07   4
  10   1 -18 13389.0 1200.70   4
   9   1 -18 24284.6 1590.99   4
   9   1 -18 20817.2 1229.99   7
   8   1 -18 5953.69 897.641   4
   8   1 -18 4096.70 559.739   7
   7   1 -18 22942.7 1505.16   4
   7   1 -18 22124.8 1217.58   7
   6  -1 -18 11654.9 1086.86   4
   6   1 -18 7341.43 873.710   4
   5  -1 -18 34692.9 1748.14   4
   5   1 -18 30187.0 1673.64   4
   4  -1 -18 2614.18 560.640   4
   4   1 -18-680.947 670.660   4
   3  -1 -18 41051.5 1816.20   4
   3   1 -18 37063.6 1824.58   4
   2  -1 -18 10682.8 921.843   4
   2   1 -18 8412.61 799.542   4
   1  -1 -18 38766.2 1719.61   4
   1   1 -18 38540.1 1839.12   4
   0  -1 -18 7294.77 730.594   4
   0   1 -18 10085.3 950.933   4
  -1  -1 -18 27725.5 1359.53   4
  -1   1 -18 29156.2 1536.60   4
  -2   1 -18 1012.81 347.720   4
  -2  -1 -18-509.140 466.344   4
  -3   1 -18 334.667 290.739   4
  -3  -1 -18-1411.34 479.366   4
  -4   1 -18 10060.0 801.408   4
  -5   1 -18 1406.85 335.135   4
  -6   1 -18 29739.6 1171.81   4
  -7   1 -18 844.741 223.368   4
 -18  -2  18 15151.3 729.878   8
 -17  -2  18 9732.60 664.381   8
 -16  -2  18 680.741 251.559   8
 -15  -2  18 22993.1 1158.02   8
 -14  -2  18 1367.11 380.208   8
  13   2 -18 18900.6 1038.43   4
  12   2 -18 1995.52 376.365   4
  11   2 -18 21447.3 1179.50   4
  11   2 -18 20336.7 1190.05   7
  10   2 -18 7776.23 763.061   4
  10   2 -18 5893.30 676.021   7
   9   2 -18 19152.9 1192.19   4
   9   2 -18 15428.8 1041.26   7
   8   2 -18 10337.2 892.150   4
   8   2 -18 8582.92 796.033   7
   7   2 -18 15882.2 1134.69   4
   7   2 -18 13415.8 974.138   7
   6   2 -18 16495.6 1160.71   4
   6   2 -18 14513.3 1000.12   7
   5   2 -18 878.445 366.805   7
   5   2 -18 1431.07 492.349   4
   4   2 -18 27463.5 1387.95   4
   4   2 -18 24823.7 1263.00   7
   3   2 -18 2694.27 440.053   7
   3   2 -18 2511.46 454.284   4
   2   2 -18 17475.8 1083.91   4
   2   2 -18 17705.5 989.469   7
   1   2 -18 1350.19 327.139   4
   0   2 -18 9427.30 724.233   4
  -1   2 -18 11329.5 780.672   4
  -2   2 -18 4486.21 452.646   4
  -3   2 -18 17629.8 902.087   4
  -5   2 -18 12607.6 634.057   4
 -13  -3  18 96.4872 152.320   8
 -12  -3  18 14606.5 770.353   8
 -11  -3  18 7224.52 572.783   8
 -10  -3  18 15241.6 831.695   8
  10   3 -18 14898.2 849.582   7
   9   3 -18 16272.1 892.126   7
   8   3 -18 5947.57 566.639   7
   7   3 -18 11925.7 780.090   7
   6   3 -18 653.444 280.106   7
   5   3 -18 9804.52 696.936   7
   4   3 -18 136.661 202.606   7
   3   3 -18 7341.57 581.753   7
   2   3 -18 184.341 194.706   7
   1   3 -18 12253.2 653.935   7
  17   0 -19-1037.92 409.913   4
  16   0 -19 1716.08 432.878   4
  15   0 -19-338.835 400.155   4
 -14   0  19 54.0138 189.070   8
  14   0 -19-169.486 333.225   4
  13   0 -19 268.381 423.257   4
  12   0 -19 2576.55 642.056   4
  11   0 -19 4025.14 897.165   4
  10   0 -19 6252.13 1053.27   4
   9   0 -19 4669.07 955.202   4
   8   0 -19 3405.64 877.193   4
   7   0 -19 2761.19 779.228   4
   6   0 -19 1597.25 600.269   4
   5   0 -19 36.3558 420.681   4
   4   0 -19-437.299 508.421   4
   3   0 -19-991.712 570.837   4
   2   0 -19-1976.81 618.662   4
   1   0 -19-1649.80 675.523   4
   0   0 -19-1737.06 675.007   4
 -17  -1  19-102.851 164.193   8
  17   1 -19-504.991 299.257   4
 -16  -1  19 271.486 198.193   8
  16  -1 -19-403.273 341.661   4
  16   1 -19-380.402 278.195   4
 -15  -1  19 772.281 282.726   8
  15  -1 -19-455.544 385.170   4
  15   1 -19-288.825 365.145   4
 -14  -1  19 2138.34 435.798   8
  14   1 -19 1592.39 395.895   4
  13  -1 -19 447.105 361.299   4
  13   1 -19 1611.58 452.537   4
  12  -1 -19 1051.08 407.720   4
  12   1 -19 1569.40 471.120   4
  11  -1 -19 3391.95 763.651   4
  11   1 -19 4364.94 707.075   4
  10  -1 -19 17891.4 1239.17   4
  10   1 -19 19980.5 1349.88   4
   9  -1 -19 5906.47 916.934   4
   9   1 -19 2487.67 756.475   4
   8  -1 -19 7410.88 938.997   4
   8   1 -19 2912.29 741.957   4
   7  -1 -19 5418.77 806.245   4
   7   1 -19 2866.83 738.394   4
   6  -1 -19 6310.74 850.563   4
   6   1 -19 2073.97 578.469   4
   5  -1 -19 11304.8 1009.99   4
   5   1 -19 8609.26 890.751   4
   4  -1 -19 2558.18 591.350   4
   4   1 -19-725.972 510.333   4
   3  -1 -19 1040.62 439.557   4
   3   1 -19-1918.48 636.678   4
   2  -1 -19 967.448 393.361   4
   2   1 -19-1487.42 672.245   4
   1  -1 -19 940.132 363.697   4
   0  -1 -19-199.986 289.448   4
   0   1 -19-1920.59 671.640   4
  -1  -1 -19 850.808 277.374   4
  -2   1 -19 1087.13 488.052   4
  -3   1 -19 6836.09 533.966   4
  -4   1 -19-541.542 381.839   4
  -5   1 -19 1561.60 210.685   4
 -16  -2  19 711.172 193.840   8
 -15  -2  19 325.207 192.435   8
 -14  -2  19 1522.13 330.157   8
 -13  -2  19 247.656 228.068   8
  12   2 -19 7998.30 607.866   4
  11   2 -19 388.746 202.848   4
  10   2 -19 5783.35 587.749   4
   9   2 -19 1116.97 299.245   7
   9   2 -19 2309.21 442.751   4
   8   2 -19 3370.99 508.996   4
   8   2 -19 557.355 245.587   7
   7   2 -19 831.013 256.362   7
   7   2 -19 2670.75 528.806   4
   6   2 -19-24.9503 180.947   7
   6   2 -19 1356.48 453.866   4
   5   2 -19 5101.53 637.905   4
   5   2 -19 2742.55 393.216   7
   4   2 -19 8062.53 715.573   4
   3   2 -19 2506.07 463.156   4
   2   2 -19 319.936 276.722   4
   1   2 -19 3067.05 435.827   4
   0   2 -19-485.573 289.573   4
  -1   2 -19 4955.95 456.597   4
  -2   2 -19 3122.21 341.522   4
   8   3 -19 577.228 186.059   7
   7   3 -19 5366.35 421.521   7
   6   3 -19-139.764 132.525   7
   5   3 -19 1265.65 216.924   7
  17   0 -20 12890.6 785.523   4
  16   0 -20 32319.1 1328.68   4
  15   0 -20 78703.5 2176.75   4
  14   0 -20-377.145 376.487   4
  13   0 -20 44.8479 315.627   4
  12   0 -20 2977.98 580.608   4
  11   0 -20 49334.5 1878.23   4
  10   0 -20 29660.2 1508.64   4
   9   0 -20 14480.2 1122.03   4
   8   0 -20 25105.4 1411.30   4
   7   0 -20 20590.9 1356.16   4
   6   0 -20 22003.4 1318.75   4
   5   0 -20 47686.2 1829.83   4
   4   0 -20 13187.5 989.781   4
   3   0 -20 28696.5 1386.71   4
   2   0 -20 1468.78 373.258   4
   1   0 -20 16623.2 969.873   4
   0   0 -20 4804.63 517.192   4
  -1   0 -20 10451.2 705.985   4
  -2   0 -20 452.100 213.316   4
  -3   0 -20 16214.3 737.510   4
  16   1 -20 5464.37 490.261   4
  15  -1 -20 7976.55 652.406   4
  15   1 -20 8618.19 667.405   4
 -15  -1  20 9055.17 595.953   8
 -14  -1  20 4403.15 470.092   8
  14  -1 -20 3203.25 454.578   4
  14   1 -20 3039.27 437.457   4
  13  -1 -20 15896.6 976.828   4
  13   1 -20 16628.5 1014.86   4
 -13  -1  20 17485.1 936.558   8
  12   1 -20 4446.14 579.243   4
  12  -1 -20 3556.39 496.286   4
  11  -1 -20 41157.0 1613.63   4
  11   1 -20 43567.4 1657.90   4
  10  -1 -20 376.091 351.801   4
  10   1 -20 2341.62 554.501   4
   9  -1 -20 23551.3 1252.27   4
   9   1 -20 27984.1 1385.15   4
   8  -1 -20 10971.6 882.706   4
   8   1 -20 10047.2 933.073   4
   7  -1 -20 24141.9 1263.78   4
   7   1 -20 22157.4 1286.38   4
   6  -1 -20 19081.1 1124.49   4
   6   1 -20 16758.0 1096.03   4
   5  -1 -20 20236.7 1120.90   4
   5   1 -20 16865.9 1087.68   4
   4  -1 -20 9583.19 771.344   4
   4   1 -20 6017.00 681.849   4
   3  -1 -20 3444.75 544.705   4
   3   1 -20 115.209 304.097   4
   2  -1 -20 26697.0 1114.59   4
   2   1 -20 21571.5 1113.73   4
   1   1 -20 708.222 303.662   4
   0   1 -20 44293.5 1462.96   4
  -1   1 -20-213.063 311.699   4
  -2   1 -20 7633.43 549.304   4
  -3   1 -20-382.068 213.193   4
 -14  -2  20 13596.7 669.767   8
 -13  -2  20 420.592 179.046   8
 -12  -2  20 18132.1 869.605   8
   9   2 -20 1084.55 230.555   4
   8   2 -20 31729.5 1099.22   4
   7   2 -20 1688.81 361.507   4
   6   2 -20 9474.09 643.101   4
   5   2 -20 8294.01 596.908   4
   4   2 -20 1288.31 326.142   4
   3   2 -20 17529.7 796.637   4
   2   2 -20 1542.88 300.103   4
  15   0 -21-184.879 202.608   4
  14   0 -21-1048.40 333.062   4
  13   0 -21-573.495 305.798   4
  12   0 -21-307.767 273.663   4
  11   0 -21 645.731 346.318   4
  10   0 -21 1238.60 386.746   4
   9   0 -21 2558.23 537.000   4
   8   0 -21 4290.20 606.755   4
   7   0 -21 5883.72 710.546   4
   6   0 -21 4335.11 663.738   4
   5   0 -21 3507.96 592.843   4
   4   0 -21 3450.32 527.699   4
   3   0 -21 2614.74 471.415   4
   2   0 -21 2354.17 419.736   4
   1   0 -21 1501.99 348.144   4
   0   0 -21 1488.85 312.285   4
  13  -1 -21-201.657 200.291   4
  13   1 -21-517.870 258.616   4
 -12  -1  21 1178.25 246.684   8
  12   1 -21 509.060 215.260   4
  11  -1 -21 1172.12 252.879   4
  11   1 -21 2448.12 379.986   4
  10  -1 -21 623.338 212.258   4
  10   1 -21 2412.16 396.278   4
   9  -1 -21-301.807 239.627   4
   9   1 -21 1163.59 349.546   4
   8   1 -21 2830.36 484.598   4
   8  -1 -21 367.160 233.656   4
   7   1 -21 3113.60 502.466   4
   7  -1 -21 561.112 262.623   4
   6  -1 -21 5536.86 516.778   4
   6   1 -21 6900.63 650.798   4
   5  -1 -21 2532.81 374.291   4
   5   1 -21 2540.22 486.934   4
   4   1 -21 4813.39 539.412   4
   3   1 -21 1867.84 401.817   4
   2   1 -21 1815.91 351.571   4
   1   1 -21 2429.55 350.633   4
  10   0 -22 332.758 185.406   4
   9   0 -22 16248.7 790.367   4
   8   0 -22 337.246 207.025   4
   7   0 -22 16161.7 779.677   4
   6   0 -22 1749.03 326.017   4
   0   0   0    0.00    0.00   0

TITL jmwtf60abs in P2(1)/c
REM P2(1)/c (#14 in standard setting)
CELL 1.54184  20.745189   4.939525  17.666398  90.0000 107.3764  90.0000
ZERR    4.00   0.000859   0.000153   0.000645   0.0000   0.0042   0.0000
LATT  1
SYMM -x, y+1/2,-z+1/2
SFAC C H N O Se
UNIT 92.00 52.00 12.00 4.00 4.00
TREF
HKLF 4
END
;
_shelx_hkl_checksum   26801

_shelx_fab_file
;
    2    0    0     39.79      0.00
    3    0    0    -22.13      0.00
    4    0    0      7.95      0.00
    5    0    0     -0.52      0.00
    6    0    0     -0.87      0.00
    7    0    0     -0.51      0.00
    8    0    0      1.38      0.00
    9    0    0     -0.23      0.00
   10    0    0     -2.47      0.00
   11    0    0      5.25      0.00
   12    0    0     -6.80      0.00
   13    0    0      6.64      0.00
   14    0    0     -5.02      0.00
   15    0    0      2.61      0.00
   16    0    0     -0.28      0.00
   17    0    0     -1.23      0.00
   18    0    0      1.50      0.00
   19    0    0     -0.61      0.00
   20    0    0     -0.80      0.00
   21    0    0      1.93      0.00
   22    0    0     -2.25      0.00
   23    0    0      1.74      0.00
   24    0    0     -0.87      0.00
    1    1    0      5.85      0.00
    2    1    0     -9.02      0.00
    5    1    0      0.35      0.00
    6    1    0      2.69      0.00
    7    1    0     -3.48      0.00
    8    1    0      2.52      0.00
    9    1    0     -0.99      0.00
   10    1    0      0.00      0.00
   11    1    0      0.00      0.00
   12    1    0      0.85      0.00
   13    1    0     -2.07      0.00
   14    1    0      3.18      0.00
   15    1    0     -3.79      0.00
   16    1    0      3.72      0.00
   17    1    0     -3.07      0.00
   18    1    0      2.13      0.00
   19    1    0     -1.32      0.00
   20    1    0      0.89      0.00
   21    1    0     -0.85      0.00
   22    1    0      0.96      0.00
   23    1    0     -0.95      0.00
   24    1    0      0.72      0.00
    0    2    0     -3.77      0.00
    1    2    0      4.47      0.00
    2    2    0     -6.18      0.00
    3    2    0      8.00      0.00
    4    2    0     -9.03      0.00
    5    2    0      8.81      0.00
    6    2    0     -7.51      0.00
    7    2    0      5.65      0.00
    8    2    0     -3.76      0.00
    9    2    0      2.13      0.00
   10    2    0     -0.82      0.00
   11    2    0     -0.25      0.00
   12    2    0      1.14      0.00
   13    2    0     -1.91      0.00
   14    2    0      2.55      0.00
   15    2    0     -3.05      0.00
   16    2    0      3.35      0.00
   17    2    0     -3.32      0.00
   18    2    0      2.88      0.00
   19    2    0     -2.05      0.00
   20    2    0      1.04      0.00
   21    2    0     -0.13      0.00
   22    2    0     -0.44      0.00
   23    2    0      0.60      0.00
    1    3    0      2.04      0.00
    2    3    0     -3.02      0.00
    3    3    0      2.48      0.00
    4    3    0     -0.78      0.00
    5    3    0     -1.18      0.00
    6    3    0      2.46      0.00
    7    3    0     -2.53      0.00
    8    3    0      1.47      0.00
    9    3    0      0.25      0.00
   10    3    0     -1.96      0.00
   11    3    0      3.09      0.00
   12    3    0     -3.32      0.00
   13    3    0      2.72      0.00
   14    3    0     -1.70      0.00
   15    3    0      0.79      0.00
   16    3    0     -0.40      0.00
   17    3    0      0.57      0.00
   18    3    0     -1.01      0.00
   19    3    0      1.28      0.00
   20    3    0     -1.15      0.00
   21    3    0      0.72      0.00
    0    4    0     -1.22      0.00
    1    4    0      0.71      0.00
    2    4    0      0.53      0.00
    3    4    0     -1.81      0.00
    4    4    0      2.43      0.00
    5    4    0     -1.99      0.00
    6    4    0      0.66      0.00
    7    4    0      0.99      0.00
    8    4    0     -2.24      0.00
    9    4    0      2.59      0.00
   10    4    0     -1.96      0.00
   11    4    0      0.72      0.00
   12    4    0      0.52      0.00
   13    4    0     -1.23      0.00
   14    4    0      1.19      0.00
   15    4    0     -0.61      0.00
   16    4    0     -0.07      0.00
   17    4    0      0.45      0.00
    1    5    0     -0.45      0.00
    2    5    0      0.65      0.00
    3    5    0     -0.50      0.00
    4    5    0      0.10      0.00
    5    5    0      0.30      0.00
    6    5    0     -0.47      0.00
    7    5    0      0.34      0.00
    8    5    0      0.02      0.00
    9    5    0     -0.41      0.00
   10    5    0      0.66      0.00
   11    5    0     -0.68      0.00
   12    5    0      0.49      0.00
   13    5    0     -0.19      0.00
   14    5    0     -0.08      0.00
    0    6    0     -0.42      0.00
    1    6    0      0.37      0.00
    2    6    0     -0.23      0.00
    3    6    0      0.04      0.00
  -24    1    1      0.87      0.00
  -23    1    1     -1.45      0.00
  -22    1    1      1.66      0.00
  -21    1    1     -1.14      0.00
  -20    1    1     -0.12      0.00
  -19    1    1      1.70      0.00
  -18    1    1     -2.93      0.00
  -17    1    1      3.26      0.00
  -16    1    1     -2.53      0.00
  -15    1    1      1.03      0.00
  -14    1    1      0.72      0.00
  -13    1    1     -2.09      0.00
  -12    1    1      2.55      0.00
  -11    1    1     -1.89      0.00
  -10    1    1      0.45      0.00
   -9    1    1      0.86      0.00
   -8    1    1     -0.85      0.00
   -7    1    1     -1.06      0.00
   -6    1    1      4.09      0.00
   -5    1    1     -6.06      0.00
   -2    1    1    -10.97      0.00
   -1    1    1     19.71      0.00
    0    1    1    -23.94      0.00
    1    1    1     21.69      0.00
    2    1    1    -14.12      0.00
    3    1    1      4.79      0.00
    4    1    1      2.49      0.00
    5    1    1     -5.66      0.00
    6    1    1      5.09      0.00
    7    1    1     -2.79      0.00
    8    1    1      0.87      0.00
    9    1    1     -0.40      0.00
   10    1    1      1.23      0.00
   11    1    1     -2.49      0.00
   12    1    1      3.28      0.00
   13    1    1     -3.13      0.00
   14    1    1      2.01      0.00
   15    1    1     -0.28      0.00
   16    1    1     -1.45      0.00
   17    1    1      2.56      0.00
   18    1    1     -2.65      0.00
   19    1    1      1.78      0.00
   20    1    1     -0.44      0.00
   21    1    1     -0.71      0.00
   22    1    1      1.23      0.00
   23    1    1     -1.10      0.00
   24    1    1      0.65      0.00
  -23    2    1     -0.10      0.00
  -22    2    1     -0.29      0.00
  -21    2    1      0.89      0.00
  -20    2    1     -1.34      0.00
  -19    2    1      1.27      0.00
  -18    2    1     -0.59      0.00
  -17    2    1     -0.34      0.00
  -16    2    1      0.92      0.00
  -15    2    1     -0.66      0.00
  -14    2    1     -0.46      0.00
  -13    2    1      2.04      0.00
  -12    2    1     -3.39      0.00
  -11    2    1      3.80      0.00
  -10    2    1     -2.85      0.00
   -9    2    1      0.55      0.00
   -8    2    1      2.46      0.00
   -7    2    1     -4.97      0.00
   -6    2    1      5.70      0.00
   -5    2    1     -3.99      0.00
   -4    2    1      0.45      0.00
   -3    2    1      3.13      0.00
   -2    2    1     -4.69      0.00
   -1    2    1      3.14      0.00
    0    2    1      0.87      0.00
    1    2    1     -5.25      0.00
    2    2    1      7.72      0.00
    3    2    1     -7.13      0.00
    4    2    1      4.07      0.00
    5    2    1     -0.29      0.00
    6    2    1     -2.34      0.00
    7    2    1      2.87      0.00
    8    2    1     -1.50      0.00
    9    2    1     -0.80      0.00
   10    2    1      2.89      0.00
   11    2    1     -3.98      0.00
   12    2    1      3.78      0.00
   13    2    1     -2.50      0.00
   14    2    1      0.76      0.00
   15    2    1      0.72      0.00
   16    2    1     -1.37      0.00
   17    2    1      1.09      0.00
   18    2    1     -0.25      0.00
   19    2    1     -0.53      0.00
   20    2    1      0.83      0.00
   21    2    1     -0.63      0.00
   22    2    1      0.22      0.00
   23    2    1      0.09      0.00
  -21    3    1      0.28      0.00
  -20    3    1     -0.48      0.00
  -19    3    1      0.56      0.00
  -18    3    1     -0.62      0.00
  -17    3    1      0.87      0.00
  -16    3    1     -1.40      0.00
  -15    3    1      2.03      0.00
  -14    3    1     -2.39      0.00
  -13    3    1      2.06      0.00
  -12    3    1     -0.94      0.00
  -11    3    1     -0.73      0.00
  -10    3    1      2.42      0.00
   -9    3    1     -3.60      0.00
   -8    3    1      3.94      0.00
   -7    3    1     -3.47      0.00
   -6    3    1      2.52      0.00
   -5    3    1     -1.58      0.00
   -4    3    1      1.05      0.00
   -3    3    1     -1.11      0.00
   -2    3    1      1.63      0.00
   -1    3    1     -2.25      0.00
    0    3    1      2.57      0.00
    1    3    1     -2.38      0.00
    2    3    1      1.78      0.00
    3    3    1     -1.11      0.00
    4    3    1      0.77      0.00
    5    3    1     -1.02      0.00
    6    3    1      1.83      0.00
    7    3    1     -2.84      0.00
    8    3    1      3.54      0.00
    9    3    1     -3.51      0.00
   10    3    1      2.62      0.00
   11    3    1     -1.09      0.00
   12    3    1     -0.57      0.00
   13    3    1      1.82      0.00
   14    3    1     -2.33      0.00
   15    3    1      2.15      0.00
   16    3    1     -1.60      0.00
   17    3    1      1.05      0.00
   18    3    1     -0.71      0.00
   19    3    1      0.55      0.00
   20    3    1     -0.41      0.00
  -17    4    1     -0.57      0.00
  -16    4    1      0.64      0.00
  -15    4    1     -0.56      0.00
  -14    4    1      0.38      0.00
  -13    4    1     -0.18      0.00
  -12    4    1      0.05      0.00
  -11    4    1     -0.03      0.00
  -10    4    1      0.13      0.00
   -9    4    1     -0.30      0.00
   -8    4    1      0.47      0.00
   -7    4    1     -0.53      0.00
   -6    4    1      0.37      0.00
   -5    4    1      0.03      0.00
   -4    4    1     -0.56      0.00
   -3    4    1      1.00      0.00
   -2    4    1     -1.15      0.00
   -1    4    1      0.90      0.00
    0    4    1     -0.34      0.00
    1    4    1     -0.26      0.00
    2    4    1      0.64      0.00
    3    4    1     -0.66      0.00
    4    4    1      0.35      0.00
    5    4    1      0.08      0.00
    6    4    1     -0.45      0.00
    7    4    1      0.61      0.00
    8    4    1     -0.56      0.00
    9    4    1      0.37      0.00
   10    4    1     -0.16      0.00
   11    4    1      0.03      0.00
   12    4    1     -0.03      0.00
   13    4    1      0.15      0.00
   14    4    1     -0.34      0.00
   15    4    1      0.49      0.00
   16    4    1     -0.54      0.00
   17    4    1      0.46      0.00
  -14    5    1     -0.57      0.00
  -13    5    1      0.74      0.00
  -12    5    1     -0.66      0.00
  -11    5    1      0.27      0.00
  -10    5    1      0.30      0.00
   -9    5    1     -0.77      0.00
   -8    5    1      0.85      0.00
   -7    5    1     -0.42      0.00
   -6    5    1     -0.34      0.00
   -5    5    1      1.04      0.00
   -4    5    1     -1.26      0.00
   -3    5    1      0.81      0.00
   -2    5    1      0.14      0.00
   -1    5    1     -1.12      0.00
    0    5    1      1.63      0.00
    1    5    1     -1.38      0.00
    2    5    1      0.50      0.00
    3    5    1      0.55      0.00
    4    5    1     -1.27      0.00
    5    5    1      1.34      0.00
    6    5    1     -0.80      0.00
    7    5    1      0.02      0.00
    8    5    1      0.59      0.00
    9    5    1     -0.75      0.00
   10    5    1      0.47      0.00
   11    5    1      0.02      0.00
   12    5    1     -0.42      0.00
   13    5    1      0.56      0.00
   14    5    1     -0.46      0.00
   -4    6    1      0.31      0.00
   -3    6    1     -0.68      0.00
   -2    6    1      0.83      0.00
   -1    6    1     -0.62      0.00
    0    6    1      0.14      0.00
    1    6    1      0.39      0.00
    2    6    1     -0.69      0.00
  -24    0    2     -1.22      0.00
  -23    0    2      2.23      0.00
  -22    0    2     -2.86      0.00
  -21    0    2      2.63      0.00
  -20    0    2     -1.49      0.00
  -19    0    2     -0.08      0.00
  -18    0    2      1.25      0.00
  -17    0    2     -1.35      0.00
  -16    0    2      0.14      0.00
  -15    0    2      2.12      0.00
  -14    0    2     -4.80      0.00
  -13    0    2      7.05      0.00
  -12    0    2     -7.99      0.00
  -11    0    2      7.02      0.00
  -10    0    2     -4.33      0.00
   -9    0    2      1.14      0.00
   -8    0    2      0.80      0.00
   -7    0    2     -0.43      0.00
   -6    0    2     -1.33      0.00
   -5    0    2      1.47      0.00
   -4    0    2      3.57      0.00
   -3    0    2    -15.35      0.00
   -2    0    2     31.61      0.00
   -1    0    2    -46.69      0.00
    0    0    2     54.38      0.00
    1    0    2    -51.31      0.00
    2    0    2     38.92      0.00
    6    0    2     -2.64      0.00
    7    0    2      1.58      0.00
    8    0    2     -0.16      0.00
    9    0    2      0.29      0.00
   10    0    2     -2.05      0.00
   11    0    2      4.42      0.00
   12    0    2     -6.17      0.00
   13    0    2      6.54      0.00
   14    0    2     -5.41      0.00
   15    0    2      3.22      0.00
   16    0    2     -0.75      0.00
   17    0    2     -1.16      0.00
   18    0    2      1.90      0.00
   19    0    2     -1.44      0.00
   20    0    2      0.30      0.00
   21    0    2      0.75      0.00
   22    0    2     -1.17      0.00
   23    0    2      0.92      0.00
  -24    1    2     -0.80      0.00
  -23    1    2      0.99      0.00
  -22    1    2     -0.89      0.00
  -21    1    2      0.60      0.00
  -20    1    2     -0.42      0.00
  -19    1    2      0.65      0.00
  -18    1    2     -1.36      0.00
  -17    1    2      2.36      0.00
  -16    1    2     -3.24      0.00
  -15    1    2      3.66      0.00
  -14    1    2     -3.41      0.00
  -13    1    2      2.56      0.00
  -12    1    2     -1.42      0.00
  -11    1    2      0.53      0.00
  -10    1    2     -0.52      0.00
   -9    1    2      1.80      0.00
   -8    1    2     -4.11      0.00
   -7    1    2      6.40      0.00
   -6    1    2     -7.26      0.00
   -5    1    2      5.80      0.00
   -4    1    2     -2.46      0.00
   -3    1    2     -0.92      0.00
   -2    1    2      2.10      0.00
   -1    1    2      0.23      0.00
    0    1    2     -5.40      0.00
    1    1    2     11.07      0.00
    2    1    2    -14.55      0.00
    3    1    2     14.34      0.00
    4    1    2    -10.86      0.00
    5    1    2      6.00      0.00
    6    1    2     -1.86      0.00
    7    1    2     -0.37      0.00
    8    1    2      0.72      0.00
    9    1    2     -0.09      0.00
   10    1    2     -0.52      0.00
   11    1    2      0.48      0.00
   12    1    2      0.31      0.00
   13    1    2     -1.57      0.00
   14    1    2      2.88      0.00
   15    1    2     -3.83      0.00
   16    1    2      4.13      0.00
   17    1    2     -3.75      0.00
   18    1    2      2.90      0.00
   19    1    2     -2.00      0.00
   20    1    2      1.34      0.00
   21    1    2     -1.02      0.00
   22    1    2      0.89      0.00
   23    1    2     -0.75      0.00
  -24    2    2     -0.57      0.00
  -23    2    2      0.71      0.00
  -22    2    2     -0.54      0.00
  -21    2    2     -0.08      0.00
  -20    2    2      1.10      0.00
  -19    2    2     -2.29      0.00
  -18    2    2      3.37      0.00
  -17    2    2     -4.13      0.00
  -16    2    2      4.48      0.00
  -15    2    2     -4.46      0.00
  -14    2    2      4.12      0.00
  -13    2    2     -3.50      0.00
  -12    2    2      2.67      0.00
  -11    2    2     -1.67      0.00
  -10    2    2      0.51      0.00
   -9    2    2      0.87      0.00
   -8    2    2     -2.58      0.00
   -7    2    2      4.64      0.00
   -6    2    2     -6.81      0.00
   -5    2    2      8.52      0.00
   -4    2    2     -9.18      0.00
   -3    2    2      8.49      0.00
   -2    2    2     -6.75      0.00
   -1    2    2      4.80      0.00
    0    2    2     -3.59      0.00
    1    2    2      3.64      0.00
    2    2    2     -4.80      0.00
    3    2    2      6.37      0.00
    4    2    2     -7.53      0.00
    5    2    2      7.77      0.00
    6    2    2     -7.07      0.00
    7    2    2      5.76      0.00
    8    2    2     -4.27      0.00
    9    2    2      2.90      0.00
   10    2    2     -1.76      0.00
   11    2    2      0.85      0.00
   12    2    2     -0.11      0.00
   13    2    2     -0.57      0.00
   14    2    2      1.23      0.00
   15    2    2     -1.86      0.00
   16    2    2      2.36      0.00
   17    2    2     -2.55      0.00
   18    2    2      2.32      0.00
   19    2    2     -1.69      0.00
   20    2    2      0.86      0.00
   21    2    2     -0.11      0.00
   22    2    2     -0.35      0.00
  -21    3    2     -0.87      0.00
  -20    3    2      1.50      0.00
  -19    3    2     -1.79      0.00
  -18    3    2      1.57      0.00
  -17    3    2     -1.03      0.00
  -16    3    2      0.58      0.00
  -15    3    2     -0.62      0.00
  -14    3    2      1.22      0.00
  -13    3    2     -2.10      0.00
  -12    3    2      2.78      0.00
  -11    3    2     -2.79      0.00
  -10    3    2      1.92      0.00
   -9    3    2     -0.31      0.00
   -8    3    2     -1.58      0.00
   -7    3    2      3.05      0.00
   -6    3    2     -3.45      0.00
   -5    3    2      2.49      0.00
   -4    3    2     -0.49      0.00
   -3    3    2     -1.67      0.00
   -2    3    2      2.95      0.00
   -1    3    2     -2.72      0.00
    0    3    2      1.14      0.00
    1    3    2      0.91      0.00
    2    3    2     -2.32      0.00
    3    3    2      2.43      0.00
    4    3    2     -1.28      0.00
    5    3    2     -0.46      0.00
    6    3    2      1.88      0.00
    7    3    2     -2.37      0.00
    8    3    2      1.74      0.00
    9    3    2     -0.29      0.00
   10    3    2     -1.37      0.00
   11    3    2      2.62      0.00
   12    3    2     -3.04      0.00
   13    3    2      2.57      0.00
   14    3    2     -1.55      0.00
   15    3    2      0.52      0.00
   16    3    2      0.06      0.00
   17    3    2     -0.07      0.00
   18    3    2     -0.25      0.00
   19    3    2      0.54      0.00
  -17    4    2      0.93      0.00
  -16    4    2     -0.62      0.00
  -15    4    2     -0.10      0.00
  -14    4    2      0.83      0.00
  -13    4    2     -1.11      0.00
  -12    4    2      0.63      0.00
  -11    4    2      0.50      0.00
  -10    4    2     -1.82      0.00
   -9    4    2      2.74      0.00
   -8    4    2     -2.76      0.00
   -7    4    2      1.78      0.00
   -6    4    2     -0.14      0.00
   -5    4    2     -1.50      0.00
   -4    4    2      2.45      0.00
   -3    4    2     -2.33      0.00
   -2    4    2      1.31      0.00
   -1    4    2      0.01      0.00
    0    4    2     -0.89      0.00
    1    4    2      0.81      0.00
    2    4    2      0.18      0.00
    3    4    2     -1.54      0.00
    4    4    2      2.52      0.00
    5    4    2     -2.57      0.00
    6    4    2      1.62      0.00
    7    4    2     -0.11      0.00
    8    4    2     -1.29      0.00
    9    4    2      1.97      0.00
   10    4    2     -1.71      0.00
   11    4    2      0.75      0.00
   12    4    2      0.38      0.00
   13    4    2     -1.14      0.00
   14    4    2      1.27      0.00
   15    4    2     -0.87      0.00
   16    4    2      0.29      0.00
  -14    5    2      0.36      0.00
  -13    5    2     -0.12      0.00
  -12    5    2     -0.21      0.00
  -11    5    2      0.49      0.00
  -10    5    2     -0.58      0.00
   -9    5    2      0.43      0.00
   -8    5    2     -0.07      0.00
   -7    5    2     -0.34      0.00
   -6    5    2      0.60      0.00
   -5    5    2     -0.56      0.00
   -4    5    2      0.22      0.00
   -3    5    2      0.24      0.00
   -2    5    2     -0.54      0.00
   -1    5    2      0.50      0.00
    0    5    2     -0.13      0.00
    1    5    2     -0.37      0.00
    2    5    2      0.71      0.00
    3    5    2     -0.72      0.00
    4    5    2      0.42      0.00
    5    5    2     -0.03      0.00
    6    5    2     -0.24      0.00
    7    5    2      0.23      0.00
    8    5    2      0.02      0.00
    9    5    2     -0.36      0.00
   10    5    2      0.63      0.00
   11    5    2     -0.73      0.00
   12    5    2      0.63      0.00
   13    5    2     -0.40      0.00
   -5    6    2     -0.11      0.00
   -4    6    2      0.05      0.00
   -3    6    2      0.09      0.00
   -2    6    2     -0.25      0.00
   -1    6    2      0.38      0.00
    0    6    2     -0.43      0.00
    1    6    2      0.39      0.00
    2    6    2     -0.26      0.00
  -25    1    3     -0.42      0.00
  -24    1    3      1.03      0.00
  -23    1    3     -1.68      0.00
  -22    1    3      1.96      0.00
  -21    1    3     -1.50      0.00
  -20    1    3      0.24      0.00
  -19    1    3      1.45      0.00
  -18    1    3     -2.92      0.00
  -17    1    3      3.61      0.00
  -16    1    3     -3.25      0.00
  -15    1    3      1.97      0.00
  -14    1    3     -0.22      0.00
  -13    1    3     -1.39      0.00
  -12    1    3      2.25      0.00
  -11    1    3     -1.93      0.00
  -10    1    3      0.60      0.00
   -9    1    3      0.85      0.00
   -8    1    3     -1.12      0.00
   -7    1    3     -0.72      0.00
   -6    1    3      4.23      0.00
   -5    1    3     -7.44      0.00
   -4    1    3      7.74      0.00
   -3    1    3     -3.50      0.00
   -2    1    3     -4.51      0.00
   -1    1    3     13.22      0.00
    0    1    3    -18.81      0.00
    1    1    3     18.81      0.00
    2    1    3    -13.51      0.00
    3    1    3      5.61      0.00
    4    1    3      1.49      0.00
    5    1    3     -5.48      0.00
    6    1    3      6.08      0.00
    7    1    3     -4.60      0.00
    8    1    3      2.82      0.00
    9    1    3     -1.90      0.00
   10    1    3      2.10      0.00
   11    1    3     -2.92      0.00
   12    1    3      3.64      0.00
   13    1    3     -3.67      0.00
   14    1    3      2.79      0.00
   15    1    3     -1.17      0.00
   16    1    3     -0.66      0.00
   17    1    3      2.02      0.00
   18    1    3     -2.46      0.00
   19    1    3      1.94      0.00
   20    1    3     -0.89      0.00
   21    1    3     -0.10      0.00
   22    1    3      0.61      0.00
   23    1    3     -0.62      0.00
  -24    2    3      0.32      0.00
  -23    2    3     -0.35      0.00
  -22    2    3      0.01      0.00
  -21    2    3      0.67      0.00
  -20    2    3     -1.33      0.00
  -19    2    3      1.51      0.00
  -18    2    3     -1.03      0.00
  -17    2    3      0.11      0.00
  -16    2    3      0.69      0.00
  -15    2    3     -0.85      0.00
  -14    2    3      0.17      0.00
  -13    2    3      1.13      0.00
  -12    2    3     -2.47      0.00
  -11    2    3      3.12      0.00
  -10    2    3     -2.46      0.00
   -9    2    3      0.24      0.00
   -8    2    3      3.14      0.00
   -7    2    3     -6.52      0.00
   -6    2    3      8.41      0.00
   -5    2    3     -7.77      0.00
   -4    2    3      4.77      0.00
   -3    2    3     -0.93      0.00
   -2    2    3     -1.61      0.00
   -1    2    3      1.37      0.00
    0    2    3      1.56      0.00
    1    2    3     -5.55      0.00
    2    2    3      8.39      0.00
    3    2    3     -8.65      0.00
    4    2    3      6.36      0.00
    5    2    3     -2.85      0.00
    6    2    3     -0.20      0.00
    7    2    3      1.64      0.00
    8    2    3     -1.27      0.00
    9    2    3     -0.29      0.00
   10    2    3      2.08      0.00
   11    2    3     -3.23      0.00
   12    2    3      3.26      0.00
   13    2    3     -2.19      0.00
   14    2    3      0.49      0.00
   15    2    3      1.11      0.00
   16    2    3     -1.99      0.00
   17    2    3      1.93      0.00
   18    2    3     -1.21      0.00
   19    2    3      0.37      0.00
   20    2    3      0.13      0.00
   21    2    3     -0.21      0.00
   22    2    3      0.05      0.00
  -22    3    3     -0.04      0.00
  -21    3    3      0.30      0.00
  -20    3    3     -0.48      0.00
  -19    3    3      0.51      0.00
  -18    3    3     -0.50      0.00
  -17    3    3      0.67      0.00
  -16    3    3     -1.16      0.00
  -15    3    3      1.84      0.00
  -14    3    3     -2.36      0.00
  -13    3    3      2.31      0.00
  -12    3    3     -1.49      0.00
  -11    3    3      0.05      0.00
  -10    3    3      1.59      0.00
   -9    3    3     -2.92      0.00
   -8    3    3      3.54      0.00
   -7    3    3     -3.33      0.00
   -6    3    3      2.48      0.00
   -5    3    3     -1.40      0.00
   -4    3    3      0.53      0.00
   -3    3    3     -0.21      0.00
   -2    3    3      0.45      0.00
   -1    3    3     -0.99      0.00
    0    3    3      1.41      0.00
    1    3    3     -1.37      0.00
    2    3    3      0.85      0.00
    3    3    3     -0.13      0.00
    4    3    3     -0.35      0.00
    5    3    3      0.25      0.00
    6    3    3      0.47      0.00
    7    3    3     -1.52      0.00
    8    3    3      2.40      0.00
    9    3    3     -2.68      0.00
   10    3    3      2.16      0.00
   11    3    3     -1.01      0.00
   12    3    3     -0.37      0.00
   13    3    3      1.48      0.00
   14    3    3     -2.01      0.00
   15    3    3      1.92      0.00
   16    3    3     -1.46      0.00
   17    3    3      0.92      0.00
   18    3    3     -0.53      0.00
  -18    4    3      0.41      0.00
  -17    4    3     -0.60      0.00
  -16    4    3      0.68      0.00
  -15    4    3     -0.63      0.00
  -14    4    3      0.48      0.00
  -13    4    3     -0.30      0.00
  -12    4    3      0.17      0.00
  -11    4    3     -0.13      0.00
  -10    4    3      0.20      0.00
   -9    4    3     -0.37      0.00
   -8    4    3      0.55      0.00
   -7    4    3     -0.64      0.00
   -6    4    3      0.52      0.00
   -5    4    3     -0.13      0.00
   -4    4    3     -0.44      0.00
   -3    4    3      1.01      0.00
   -2    4    3     -1.35      0.00
   -1    4    3      1.34      0.00
    0    4    3     -1.00      0.00
    1    4    3      0.53      0.00
    2    4    3     -0.13      0.00
    3    4    3     -0.01      0.00
    4    4    3     -0.12      0.00
    5    4    3      0.42      0.00
    6    4    3     -0.72      0.00
    7    4    3      0.85      0.00
    8    4    3     -0.78      0.00
    9    4    3      0.53      0.00
   10    4    3     -0.24      0.00
   11    4    3      0.02      0.00
   12    4    3      0.04      0.00
   13    4    3      0.05      0.00
   14    4    3     -0.20      0.00
   15    4    3      0.31      0.00
   16    4    3     -0.32      0.00
  -15    5    3      0.30      0.00
  -14    5    3     -0.59      0.00
  -13    5    3      0.81      0.00
  -12    5    3     -0.80      0.00
  -11    5    3      0.47      0.00
  -10    5    3      0.12      0.00
   -9    5    3     -0.72      0.00
   -8    5    3      1.02      0.00
   -7    5    3     -0.83      0.00
   -6    5    3      0.19      0.00
   -5    5    3      0.59      0.00
   -4    5    3     -1.08      0.00
   -3    5    3      0.97      0.00
   -2    5    3     -0.28      0.00
   -1    5    3     -0.65      0.00
    0    5    3      1.33      0.00
    1    5    3     -1.39      0.00
    2    5    3      0.78      0.00
    3    5    3      0.18      0.00
    4    5    3     -1.01      0.00
    5    5    3      1.31      0.00
    6    5    3     -0.99      0.00
    7    5    3      0.30      0.00
    8    5    3      0.37      0.00
    9    5    3     -0.70      0.00
   10    5    3      0.60      0.00
   11    5    3     -0.23      0.00
   12    5    3     -0.14      0.00
   13    5    3      0.33      0.00
   -5    6    3      0.11      0.00
   -4    6    3      0.15      0.00
   -3    6    3     -0.50      0.00
   -2    6    3      0.72      0.00
   -1    6    3     -0.65      0.00
    0    6    3      0.31      0.00
    1    6    3      0.15      0.00
    2    6    3     -0.47      0.00
  -24    0    4     -1.23      0.00
  -23    0    4      2.30      0.00
  -22    0    4     -3.07      0.00
  -21    0    4      3.05      0.00
  -20    0    4     -2.11      0.00
  -19    0    4      0.65      0.00
  -18    0    4      0.58      0.00
  -17    0    4     -0.88      0.00
  -16    0    4     -0.09      0.00
  -15    0    4      2.27      0.00
  -14    0    4     -5.16      0.00
  -13    0    4      7.96      0.00
  -12    0    4     -9.66      0.00
  -11    0    4      9.46      0.00
  -10    0    4     -7.27      0.00
   -9    0    4      4.15      0.00
   -8    0    4     -1.92      0.00
   -7    0    4      2.02      0.00
   -6    0    4     -4.14      0.00
   -5    0    4      5.83      0.00
   -4    0    4     -3.64      0.00
   -3    0    4     -4.57      0.00
   -2    0    4     17.69      0.00
   -1    0    4    -31.32      0.00
    0    0    4     39.93      0.00
    1    0    4    -39.90      0.00
    2    0    4     31.52      0.00
    3    0    4    -18.63      0.00
    4    0    4      6.35      0.00
    5    0    4      1.62      0.00
    6    0    4     -4.46      0.00
    7    0    4      3.81      0.00
    8    0    4     -2.18      0.00
    9    0    4      1.44      0.00
   10    0    4     -2.15      0.00
   11    0    4      3.77      0.00
   12    0    4     -5.29      0.00
   13    0    4      5.85      0.00
   14    0    4     -5.04      0.00
   15    0    4      3.05      0.00
   16    0    4     -0.54      0.00
   17    0    4     -1.59      0.00
   18    0    4      2.66      0.00
   19    0    4     -2.51      0.00
   20    0    4      1.58      0.00
   21    0    4     -0.56      0.00
   22    0    4     -0.04      0.00
  -25    1    4      0.38      0.00
  -24    1    4     -0.75      0.00
  -23    1    4      0.97      0.00
  -22    1    4     -0.87      0.00
  -21    1    4      0.49      0.00
  -20    1    4     -0.12      0.00
  -19    1    4      0.10      0.00
  -18    1    4     -0.58      0.00
  -17    1    4      1.45      0.00
  -16    1    4     -2.38      0.00
  -15    1    4      2.98      0.00
  -14    1    4     -2.98      0.00
  -13    1    4      2.33      0.00
  -12    1    4     -1.24      0.00
  -11    1    4      0.27      0.00
  -10    1    4     -0.15      0.00
   -9    1    4      1.47      0.00
   -8    1    4     -4.17      0.00
   -7    1    4      7.35      0.00
   -6    1    4     -9.52      0.00
   -5    1    4      9.51      0.00
   -4    1    4     -7.31      0.00
   -3    1    4      4.33      0.00
   -2    1    4     -2.70      0.00
   -1    1    4      3.91      0.00
    0    1    4     -7.84      0.00
    1    1    4     12.70      0.00
    2    1    4    -16.10      0.00
    3    1    4     16.40      0.00
    4    1    4    -13.59      0.00
    5    1    4      9.04      0.00
    6    1    4     -4.61      0.00
    7    1    4      1.60      0.00
    8    1    4     -0.29      0.00
    9    1    4      0.17      0.00
   10    1    4     -0.43      0.00
   11    1    4      0.40      0.00
   12    1    4      0.20      0.00
   13    1    4     -1.32      0.00
   14    1    4      2.64      0.00
   15    1    4     -3.74      0.00
   16    1    4      4.25      0.00
   17    1    4     -4.04      0.00
   18    1    4      3.26      0.00
   19    1    4     -2.26      0.00
   20    1    4      1.41      0.00
   21    1    4     -0.87      0.00
   22    1    4      0.57      0.00
  -24    2    4     -0.73      0.00
  -23    2    4      0.90      0.00
  -22    2    4     -0.72      0.00
  -21    2    4      0.07      0.00
  -20    2    4      1.01      0.00
  -19    2    4     -2.33      0.00
  -18    2    4      3.64      0.00
  -17    2    4     -4.68      0.00
  -16    2    4      5.34      0.00
  -15    2    4     -5.54      0.00
  -14    2    4      5.32      0.00
  -13    2    4     -4.71      0.00
  -12    2    4      3.81      0.00
  -11    2    4     -2.74      0.00
  -10    2    4      1.57      0.00
   -9    2    4     -0.24      0.00
   -8    2    4     -1.37      0.00
   -7    2    4      3.33      0.00
   -6    2    4     -5.43      0.00
   -5    2    4      7.21      0.00
   -4    2    4     -8.09      0.00
   -3    2    4      7.74      0.00
   -2    2    4     -6.31      0.00
   -1    2    4      4.46      0.00
    0    2    4     -2.98      0.00
    1    2    4      2.44      0.00
    2    2    4     -2.88      0.00
    3    2    4      3.89      0.00
    4    2    4     -4.90      0.00
    5    2    4      5.42      0.00
    6    2    4     -5.31      0.00
    7    2    4      4.66      0.00
    8    2    4     -3.71      0.00
    9    2    4      2.74      0.00
   10    2    4     -1.90      0.00
   11    2    4      1.25      0.00
   12    2    4     -0.73      0.00
   13    2    4      0.22      0.00
   14    2    4      0.36      0.00
   15    2    4     -1.01      0.00
   16    2    4      1.56      0.00
   17    2    4     -1.83      0.00
   18    2    4      1.69      0.00
   19    2    4     -1.21      0.00
   20    2    4      0.58      0.00
   21    2    4     -0.06      0.00
  -22    3    4      0.01      0.00
  -21    3    4     -0.66      0.00
  -20    3    4      1.40      0.00
  -19    3    4     -1.84      0.00
  -18    3    4      1.72      0.00
  -17    3    4     -1.13      0.00
  -16    3    4      0.44      0.00
  -15    3    4     -0.09      0.00
  -14    3    4      0.30      0.00
  -13    3    4     -0.95      0.00
  -12    3    4      1.66      0.00
  -11    3    4     -1.98      0.00
  -10    3    4      1.55      0.00
   -9    3    4     -0.30      0.00
   -8    3    4     -1.47      0.00
   -7    3    4      3.12      0.00
   -6    3    4     -3.90      0.00
   -5    3    4      3.33      0.00
   -4    3    4     -1.49      0.00
   -3    3    4     -0.90      0.00
   -2    3    4      2.80      0.00
   -1    3    4     -3.39      0.00
    0    3    4      2.55      0.00
    1    3    4     -0.88      0.00
    2    3    4     -0.64      0.00
    3    3    4      1.23      0.00
    4    3    4     -0.67      0.00
    5    3    4     -0.65      0.00
    6    3    4      1.99      0.00
    7    3    4     -2.67      0.00
    8    3    4      2.35      0.00
    9    3    4     -1.15      0.00
   10    3    4     -0.43      0.00
   11    3    4      1.76      0.00
   12    3    4     -2.34      0.00
   13    3    4      2.05      0.00
   14    3    4     -1.16      0.00
   15    3    4      0.19      0.00
   16    3    4      0.41      0.00
   17    3    4     -0.52      0.00
   18    3    4      0.29      0.00
  -18    4    4     -0.97      0.00
  -17    4    4      1.24      0.00
  -16    4    4     -1.04      0.00
  -15    4    4      0.37      0.00
  -14    4    4      0.44      0.00
  -13    4    4     -0.95      0.00
  -12    4    4      0.82      0.00
  -11    4    4     -0.01      0.00
  -10    4    4     -1.16      0.00
   -9    4    4      2.19      0.00
   -8    4    4     -2.54      0.00
   -7    4    4      1.94      0.00
   -6    4    4     -0.53      0.00
   -5    4    4     -1.19      0.00
   -4    4    4      2.52      0.00
   -3    4    4     -2.91      0.00
   -2    4    4      2.27      0.00
   -1    4    4     -1.03      0.00
    0    4    4     -0.08      0.00
    1    4    4      0.41      0.00
    2    4    4      0.21      0.00
    3    4    4     -1.43      0.00
    4    4    4      2.54      0.00
    5    4    4     -2.91      0.00
    6    4    4      2.30      0.00
    7    4    4     -0.98      0.00
    8    4    4     -0.43      0.00
    9    4    4      1.33      0.00
   10    4    4     -1.42      0.00
   11    4    4      0.81      0.00
   12    4    4      0.07      0.00
   13    4    4     -0.74      0.00
   14    4    4      0.94      0.00
   15    4    4     -0.70      0.00
  -15    5    4     -0.53      0.00
  -14    5    4      0.52      0.00
  -13    5    4     -0.33      0.00
  -12    5    4      0.02      0.00
  -11    5    4      0.30      0.00
  -10    5    4     -0.50      0.00
   -9    5    4      0.47      0.00
   -8    5    4     -0.21      0.00
   -7    5    4     -0.20      0.00
   -6    5    4      0.54      0.00
   -5    5    4     -0.63      0.00
   -4    5    4      0.39      0.00
   -3    5    4      0.04      0.00
   -2    5    4     -0.42      0.00
   -1    5    4      0.51      0.00
    0    5    4     -0.23      0.00
    1    5    4     -0.26      0.00
    2    5    4      0.67      0.00
    3    5    4     -0.79      0.00
    4    5    4      0.60      0.00
    5    5    4     -0.25      0.00
    6    5    4     -0.04      0.00
    7    5    4      0.12      0.00
    8    5    4      0.02      0.00
    9    5    4     -0.26      0.00
   10    5    4      0.48      0.00
   11    5    4     -0.58      0.00
   12    5    4      0.54      0.00
   -5    6    4      0.04      0.00
   -4    6    4     -0.07      0.00
   -3    6    4      0.16      0.00
   -2    6    4     -0.25      0.00
   -1    6    4      0.31      0.00
    0    6    4     -0.34      0.00
    1    6    4      0.31      0.00
  -25    1    5     -0.49      0.00
  -24    1    5      1.15      0.00
  -23    1    5     -1.87      0.00
  -22    1    5      2.26      0.00
  -21    1    5     -1.96      0.00
  -20    1    5      0.85      0.00
  -19    1    5      0.77      0.00
  -18    1    5     -2.33      0.00
  -17    1    5      3.25      0.00
  -16    1    5     -3.21      0.00
  -15    1    5      2.20      0.00
  -14    1    5     -0.54      0.00
  -13    1    5     -1.21      0.00
  -12    1    5      2.39      0.00
  -11    1    5     -2.47      0.00
  -10    1    5      1.47      0.00
   -9    1    5     -0.14      0.00
   -8    1    5     -0.22      0.00
   -7    1    5     -1.43      0.00
   -6    1    5      4.99      0.00
   -5    1    5     -8.83      0.00
   -4    1    5     10.53      0.00
   -3    1    5     -8.25      0.00
   -2    1    5      2.10      0.00
   -1    1    5      5.67      0.00
    0    1    5    -11.78      0.00
    1    1    5     13.72      0.00
    2    1    5    -11.06      0.00
    3    1    5      5.46      0.00
    4    1    5      0.42      0.00
    5    1    5     -4.45      0.00
    6    1    5      5.86      0.00
    7    1    5     -5.23      0.00
    8    1    5      3.79      0.00
    9    1    5     -2.64      0.00
   10    1    5      2.28      0.00
   11    1    5     -2.61      0.00
   12    1    5      3.13      0.00
   13    1    5     -3.27      0.00
   14    1    5      2.65      0.00
   15    1    5     -1.28      0.00
   16    1    5     -0.40      0.00
   17    1    5      1.75      0.00
   18    1    5     -2.32      0.00
   19    1    5      2.03      0.00
   20    1    5     -1.23      0.00
   21    1    5      0.43      0.00
   22    1    5      0.04      0.00
  -24    2    5      0.60      0.00
  -23    2    5     -0.80      0.00
  -22    2    5      0.57      0.00
  -21    2    5      0.11      0.00
  -20    2    5     -0.95      0.00
  -19    2    5      1.46      0.00
  -18    2    5     -1.33      0.00
  -17    2    5      0.63      0.00
  -16    2    5      0.20      0.00
  -15    2    5     -0.65      0.00
  -14    2    5      0.39      0.00
  -13    2    5      0.57      0.00
  -12    2    5     -1.83      0.00
  -11    2    5      2.74      0.00
  -10    2    5     -2.54      0.00
   -9    2    5      0.75      0.00
   -8    2    5      2.46      0.00
   -7    2    5     -6.11      0.00
   -6    2    5      8.69      0.00
   -5    2    5     -8.92      0.00
   -4    2    5      6.59      0.00
   -3    2    5     -2.84      0.00
   -2    2    5     -0.37      0.00
   -1    2    5      1.35      0.00
    0    2    5      0.28      0.00
    1    2    5     -3.45      0.00
    2    2    5      6.28      0.00
    3    2    5     -7.25      0.00
    4    2    5      5.98      0.00
    5    2    5     -3.24      0.00
    6    2    5      0.39      0.00
    7    2    5      1.42      0.00
    8    2    5     -1.72      0.00
    9    2    5      0.76      0.00
   10    2    5      0.73      0.00
   11    2    5     -1.94      0.00
   12    2    5      2.27      0.00
   13    2    5     -1.56      0.00
   14    2    5      0.16      0.00
   15    2    5      1.29      0.00
   16    2    5     -2.18      0.00
   17    2    5      2.23      0.00
   18    2    5     -1.63      0.00
   19    2    5      0.84      0.00
   20    2    5     -0.24      0.00
  -22    3    5     -0.07      0.00
  -21    3    5      0.33      0.00
  -20    3    5     -0.48      0.00
  -19    3    5      0.48      0.00
  -18    3    5     -0.42      0.00
  -17    3    5      0.53      0.00
  -16    3    5     -0.95      0.00
  -15    3    5      1.60      0.00
  -14    3    5     -2.20      0.00
  -13    3    5      2.39      0.00
  -12    3    5     -1.95      0.00
  -11    3    5      0.90      0.00
  -10    3    5      0.48      0.00
   -9    3    5     -1.78      0.00
   -8    3    5      2.62      0.00
   -7    3    5     -2.71      0.00
   -6    3    5      2.05      0.00
   -5    3    5     -0.90      0.00
   -4    3    5     -0.27      0.00
   -3    3    5      1.02      0.00
   -2    3    5     -1.13      0.00
   -1    3    5      0.76      0.00
    0    3    5     -0.31      0.00
    1    3    5      0.20      0.00
    2    3    5     -0.58      0.00
    3    3    5      1.23      0.00
    4    3    5     -1.72      0.00
    5    3    5      1.68      0.00
    6    3    5     -1.01      0.00
    7    3    5     -0.04      0.00
    8    3    5      1.03      0.00
    9    3    5     -1.56      0.00
   10    3    5      1.45      0.00
   11    3    5     -0.79      0.00
   12    3    5     -0.11      0.00
   13    3    5      0.89      0.00
   14    3    5     -1.28      0.00
   15    3    5      1.24      0.00
   16    3    5     -0.89      0.00
   17    3    5      0.46      0.00
  -19    4    5     -0.29      0.00
  -18    4    5      0.47      0.00
  -17    4    5     -0.63      0.00
  -16    4    5      0.72      0.00
  -15    4    5     -0.72      0.00
  -14    4    5      0.63      0.00
  -13    4    5     -0.50      0.00
  -12    4    5      0.36      0.00
  -11    4    5     -0.28      0.00
  -10    4    5      0.30      0.00
   -9    4    5     -0.44      0.00
   -8    4    5      0.63      0.00
   -7    4    5     -0.75      0.00
   -6    4    5      0.67      0.00
   -5    4    5     -0.32      0.00
   -4    4    5     -0.24      0.00
   -3    4    5      0.87      0.00
   -2    4    5     -1.37      0.00
   -1    4    5      1.59      0.00
    0    4    5     -1.51      0.00
    1    4    5      1.20      0.00
    2    4    5     -0.84      0.00
    3    4    5      0.58      0.00
    4    4    5     -0.52      0.00
    5    4    5      0.66      0.00
    6    4    5     -0.89      0.00
    7    4    5      1.03      0.00
    8    4    5     -0.96      0.00
    9    4    5      0.67      0.00
   10    4    5     -0.28      0.00
   11    4    5     -0.06      0.00
   12    4    5      0.21      0.00
   13    4    5     -0.16      0.00
   14    4    5      0.02      0.00
   15    4    5      0.07      0.00
  -15    5    5      0.30      0.00
  -14    5    5     -0.56      0.00
  -13    5    5      0.79      0.00
  -12    5    5     -0.86      0.00
  -11    5    5      0.64      0.00
  -10    5    5     -0.12      0.00
   -9    5    5     -0.50      0.00
   -8    5    5      0.94      0.00
   -7    5    5     -0.95      0.00
   -6    5    5      0.47      0.00
   -5    5    5      0.29      0.00
   -4    5    5     -0.93      0.00
   -3    5    5      1.12      0.00
   -2    5    5     -0.72      0.00
   -1    5    5     -0.08      0.00
    0    5    5      0.85      0.00
    1    5    5     -1.20      0.00
    2    5    5      0.94      0.00
    3    5    5     -0.23      0.00
    4    5    5     -0.54      0.00
    5    5    5      0.97      0.00
    6    5    5     -0.87      0.00
    7    5    5      0.35      0.00
    8    5    5      0.26      0.00
    9    5    5     -0.65      0.00
   10    5    5      0.66      0.00
   11    5    5     -0.39      0.00
   -4    6    5     -0.06      0.00
   -3    6    5     -0.21      0.00
   -2    6    5      0.45      0.00
   -1    6    5     -0.49      0.00
    0    6    5      0.30      0.00
  -24    0    6     -0.95      0.00
  -23    0    6      2.09      0.00
  -22    0    6     -3.08      0.00
  -21    0    6      3.41      0.00
  -20    0    6     -2.86      0.00
  -19    0    6      1.69      0.00
  -18    0    6     -0.50      0.00
  -17    0    6     -0.02      0.00
  -16    0    6     -0.60      0.00
  -15    0    6      2.47      0.00
  -14    0    6     -5.28      0.00
  -13    0    6      8.31      0.00
  -12    0    6    -10.54      0.00
  -11    0    6     11.04      0.00
  -10    0    6     -9.53      0.00
   -9    0    6      6.85      0.00
   -8    0    6     -4.71      0.00
   -7    0    6      4.68      0.00
   -6    0    6     -6.90      0.00
   -5    0    6      9.55      0.00
   -4    0    6     -9.61      0.00
   -3    0    6      4.80      0.00
   -2    0    6      4.70      0.00
   -1    0    6    -15.87      0.00
    0    0    6     24.34      0.00
    1    0    6    -26.72      0.00
    2    0    6     22.46      0.00
    3    0    6    -13.89      0.00
    4    0    6      4.73      0.00
    5    0    6      1.92      0.00
    6    0    6     -4.86      0.00
    7    0    6      4.79      0.00
    8    0    6     -3.39      0.00
    9    0    6      2.23      0.00
   10    0    6     -2.06      0.00
   11    0    6      2.82      0.00
   12    0    6     -3.83      0.00
   13    0    6      4.31      0.00
   14    0    6     -3.73      0.00
   15    0    6      2.05      0.00
   16    0    6      0.19      0.00
   17    0    6     -2.17      0.00
   18    0    6      3.21      0.00
   19    0    6     -3.13      0.00
   20    0    6      2.29      0.00
   21    0    6     -1.29      0.00
  -25    1    6      0.24      0.00
  -24    1    6     -0.66      0.00
  -23    1    6      0.98      0.00
  -22    1    6     -0.94      0.00
  -21    1    6      0.51      0.00
  -20    1    6      0.07      0.00
  -19    1    6     -0.46      0.00
  -18    1    6      0.40      0.00
  -17    1    6      0.13      0.00
  -16    1    6     -0.88      0.00
  -15    1    6      1.50      0.00
  -14    1    6     -1.64      0.00
  -13    1    6      1.13      0.00
  -12    1    6     -0.09      0.00
  -11    1    6     -1.00      0.00
  -10    1    6      1.37      0.00
   -9    1    6     -0.34      0.00
   -8    1    6     -2.24      0.00
   -7    1    6      5.63      0.00
   -6    1    6     -8.44      0.00
   -5    1    6      9.40      0.00
   -4    1    6     -8.17      0.00
   -3    1    6      5.75      0.00
   -2    1    6     -3.94      0.00
   -1    1    6      4.26      0.00
    0    1    6     -6.96      0.00
    1    1    6     10.84      0.00
    2    1    6    -13.97      0.00
    3    1    6     14.79      0.00
    4    1    6    -12.96      0.00
    5    1    6      9.34      0.00
    6    1    6     -5.37      0.00
    7    1    6      2.25      0.00
    8    1    6     -0.48      0.00
    9    1    6     -0.11      0.00
   10    1    6      0.07      0.00
   11    1    6      0.01      0.00
   12    1    6      0.27      0.00
   13    1    6     -1.03      0.00
   14    1    6      2.09      0.00
   15    1    6     -3.09      0.00
   16    1    6      3.63      0.00
   17    1    6     -3.52      0.00
   18    1    6      2.84      0.00
   19    1    6     -1.89      0.00
   20    1    6      1.03      0.00
   21    1    6     -0.44      0.00
  -24    2    6     -0.92      0.00
  -23    2    6      1.12      0.00
  -22    2    6     -0.97      0.00
  -21    2    6      0.36      0.00
  -20    2    6      0.69      0.00
  -19    2    6     -2.03      0.00
  -18    2    6      3.43      0.00
  -17    2    6     -4.64      0.00
  -16    2    6      5.49      0.00
  -15    2    6     -5.86      0.00
  -14    2    6      5.73      0.00
  -13    2    6     -5.15      0.00
  -12    2    6      4.28      0.00
  -11    2    6     -3.26      0.00
  -10    2    6      2.18      0.00
   -9    2    6     -1.02      0.00
   -8    2    6     -0.35      0.00
   -7    2    6      1.97      0.00
   -6    2    6     -3.73      0.00
   -5    2    6      5.26      0.00
   -4    2    6     -6.11      0.00
   -3    2    6      6.01      0.00
   -2    2    6     -5.01      0.00
   -1    2    6      3.51      0.00
    0    2    6     -2.08      0.00
    1    2    6      1.15      0.00
    2    2    6     -0.92      0.00
    3    2    6      1.28      0.00
    4    2    6     -1.94      0.00
    5    2    6      2.57      0.00
    6    2    6     -2.91      0.00
    7    2    6      2.87      0.00
    8    2    6     -2.49      0.00
    9    2    6      1.96      0.00
   10    2    6     -1.47      0.00
   11    2    6      1.12      0.00
   12    2    6     -0.87      0.00
   13    2    6      0.58      0.00
   14    2    6     -0.14      0.00
   15    2    6     -0.43      0.00
   16    2    6      0.93      0.00
   17    2    6     -1.17      0.00
   18    2    6      1.05      0.00
   19    2    6     -0.67      0.00
   20    2    6      0.25      0.00
  -22    3    6     -0.33      0.00
  -21    3    6     -0.26      0.00
  -20    3    6      1.02      0.00
  -19    3    6     -1.55      0.00
  -18    3    6      1.57      0.00
  -17    3    6     -1.05      0.00
  -16    3    6      0.27      0.00
  -15    3    6      0.33      0.00
  -14    3    6     -0.46      0.00
  -13    3    6      0.06      0.00
  -12    3    6      0.66      0.00
  -11    3    6     -1.28      0.00
  -10    3    6      1.38      0.00
   -9    3    6     -0.69      0.00
   -8    3    6     -0.68      0.00
   -7    3    6      2.22      0.00
   -6    3    6     -3.21      0.00
   -5    3    6      3.05      0.00
   -4    3    6     -1.60      0.00
   -3    3    6     -0.65      0.00
   -2    3    6      2.81      0.00
   -1    3    6     -4.01      0.00
    0    3    6      3.89      0.00
    1    3    6     -2.75      0.00
    2    3    6      1.33      0.00
    3    3    6     -0.40      0.00
    4    3    6      0.39      0.00
    5    3    6     -1.17      0.00
    6    3    6      2.24      0.00
    7    3    6     -2.93      0.00
    8    3    6      2.80      0.00
    9    3    6     -1.81      0.00
   10    3    6      0.34      0.00
   11    3    6      1.00      0.00
   12    3    6     -1.70      0.00
   13    3    6      1.58      0.00
   14    3    6     -0.89      0.00
   15    3    6      0.08      0.00
   16    3    6      0.44      0.00
  -19    4    6      0.41      0.00
  -18    4    6     -0.93      0.00
  -17    4    6      1.27      0.00
  -16    4    6     -1.19      0.00
  -15    4    6      0.64      0.00
  -14    4    6      0.14      0.00
  -13    4    6     -0.80      0.00
  -12    4    6      1.01      0.00
  -11    4    6     -0.62      0.00
  -10    4    6     -0.24      0.00
   -9    4    6      1.21      0.00
   -8    4    6     -1.81      0.00
   -7    4    6      1.65      0.00
   -6    4    6     -0.64      0.00
   -5    4    6     -0.90      0.00
   -4    4    6      2.38      0.00
   -3    4    6     -3.14      0.00
   -2    4    6      2.91      0.00
   -1    4    6     -1.89      0.00
    0    4    6      0.70      0.00
    1    4    6     -0.03      0.00
    2    4    6      0.23      0.00
    3    4    6     -1.13      0.00
    4    4    6      2.16      0.00
    5    4    6     -2.67      0.00
    6    4    6      2.33      0.00
    7    4    6     -1.27      0.00
    8    4    6     -0.01      0.00
    9    4    6      0.96      0.00
   10    4    6     -1.25      0.00
   11    4    6      0.93      0.00
   12    4    6     -0.31      0.00
   13    4    6     -0.21      0.00
   14    4    6      0.41      0.00
  -14    5    6      0.48      0.00
  -13    5    6     -0.35      0.00
  -12    5    6      0.09      0.00
  -11    5    6      0.24      0.00
  -10    5    6     -0.51      0.00
   -9    5    6      0.60      0.00
   -8    5    6     -0.45      0.00
   -7    5    6      0.09      0.00
   -6    5    6      0.30      0.00
   -5    5    6     -0.50      0.00
   -4    5    6      0.40      0.00
   -3    5    6     -0.03      0.00
   -2    5    6     -0.36      0.00
   -1    5    6      0.52      0.00
    0    5    6     -0.33      0.00
    1    5    6     -0.10      0.00
    2    5    6      0.51      0.00
    3    5    6     -0.68      0.00
    4    5    6      0.56      0.00
    5    5    6     -0.28      0.00
    6    5    6      0.03      0.00
    7    5    6      0.06      0.00
    8    5    6      0.02      0.00
    9    5    6     -0.17      0.00
   10    5    6      0.30      0.00
  -25    1    7     -0.50      0.00
  -24    1    7      1.18      0.00
  -23    1    7     -1.96      0.00
  -22    1    7      2.49      0.00
  -21    1    7     -2.43      0.00
  -20    1    7      1.61      0.00
  -19    1    7     -0.22      0.00
  -18    1    7     -1.31      0.00
  -17    1    7      2.42      0.00
  -16    1    7     -2.73      0.00
  -15    1    7      2.12      0.00
  -14    1    7     -0.75      0.00
  -13    1    7     -0.91      0.00
  -12    1    7      2.21      0.00
  -11    1    7     -2.59      0.00
  -10    1    7      1.95      0.00
   -9    1    7     -0.88      0.00
   -8    1    7      0.51      0.00
   -7    1    7     -1.84      0.00
   -6    1    7      4.97      0.00
   -5    1    7     -8.71      0.00
   -4    1    7     11.02      0.00
   -3    1    7    -10.20      0.00
   -2    1    7      5.96      0.00
   -1    1    7      0.27      0.00
    0    1    7     -5.99      0.00
    1    1    7      9.00      0.00
    2    1    7     -8.48      0.00
    3    1    7      5.19      0.00
    4    1    7     -0.90      0.00
    5    1    7     -2.64      0.00
    6    1    7      4.48      0.00
    7    1    7     -4.60      0.00
    8    1    7      3.66      0.00
    9    1    7     -2.52      0.00
   10    1    7      1.81      0.00
   11    1    7     -1.74      0.00
   12    1    7      2.04      0.00
   13    1    7     -2.24      0.00
   14    1    7      1.90      0.00
   15    1    7     -0.92      0.00
   16    1    7     -0.38      0.00
   17    1    7      1.46      0.00
   18    1    7     -1.93      0.00
   19    1    7      1.73      0.00
   20    1    7     -1.14      0.00
  -24    2    7      0.83      0.00
  -23    2    7     -1.19      0.00
  -22    2    7      1.10      0.00
  -21    2    7     -0.44      0.00
  -20    2    7     -0.55      0.00
  -19    2    7      1.41      0.00
  -18    2    7     -1.74      0.00
  -17    2    7      1.44      0.00
  -16    2    7     -0.79      0.00
  -15    2    7      0.22      0.00
  -14    2    7     -0.14      0.00
  -13    2    7      0.74      0.00
  -12    2    7     -1.85      0.00
  -11    2    7      2.93      0.00
  -10    2    7     -3.26      0.00
   -9    2    7      2.19      0.00
   -8    2    7      0.37      0.00
   -7    2    7     -3.69      0.00
   -6    2    7      6.44      0.00
   -5    2    7     -7.29      0.00
   -4    2    7      5.75      0.00
   -3    2    7     -2.53      0.00
   -2    2    7     -0.74      0.00
   -1    2    7      2.44      0.00
    0    2    7     -1.86      0.00
    1    2    7     -0.42      0.00
    2    2    7      3.01      0.00
    3    2    7     -4.49      0.00
    4    2    7      4.21      0.00
    5    2    7     -2.48      0.00
    6    2    7      0.22      0.00
    7    2    7      1.55      0.00
    8    2    7     -2.20      0.00
    9    2    7      1.69      0.00
   10    2    7     -0.47      0.00
   11    2    7     -0.77      0.00
   12    2    7      1.40      0.00
   13    2    7     -1.15      0.00
   14    2    7      0.22      0.00
   15    2    7      0.88      0.00
   16    2    7     -1.62      0.00
   17    2    7      1.72      0.00
   18    2    7     -1.31      0.00
   19    2    7      0.71      0.00
  -22    3    7     -0.08      0.00
  -21    3    7      0.31      0.00
  -20    3    7     -0.43      0.00
  -19    3    7      0.39      0.00
  -18    3    7     -0.30      0.00
  -17    3    7      0.35      0.00
  -16    3    7     -0.66      0.00
  -15    3    7      1.22      0.00
  -14    3    7     -1.80      0.00
  -13    3    7      2.15      0.00
  -12    3    7     -2.07      0.00
  -11    3    7      1.48      0.00
  -10    3    7     -0.48      0.00
   -9    3    7     -0.68      0.00
   -8    3    7      1.66      0.00
   -7    3    7     -2.08      0.00
   -6    3    7      1.72      0.00
   -5    3    7     -0.67      0.00
   -4    3    7     -0.66      0.00
   -3    3    7      1.75      0.00
   -2    3    7     -2.22      0.00
   -1    3    7      2.06      0.00
    0    3    7     -1.64      0.00
    1    3    7      1.40      0.00
    2    3    7     -1.59      0.00
    3    3    7      2.11      0.00
    4    3    7     -2.55      0.00
    5    3    7      2.56      0.00
    6    3    7     -2.00      0.00
    7    3    7      1.05      0.00
    8    3    7     -0.08      0.00
    9    3    7     -0.59      0.00
   10    3    7      0.80      0.00
   11    3    7     -0.60      0.00
   12    3    7      0.18      0.00
   13    3    7      0.22      0.00
   14    3    7     -0.45      0.00
   15    3    7      0.45      0.00
   16    3    7     -0.27      0.00
  -19    4    7     -0.39      0.00
  -18    4    7      0.51      0.00
  -17    4    7     -0.60      0.00
  -16    4    7      0.67      0.00
  -15    4    7     -0.71      0.00
  -14    4    7      0.69      0.00
  -13    4    7     -0.61      0.00
  -12    4    7      0.48      0.00
  -11    4    7     -0.36      0.00
  -10    4    7      0.33      0.00
   -9    4    7     -0.43      0.00
   -8    4    7      0.60      0.00
   -7    4    7     -0.73      0.00
   -6    4    7      0.67      0.00
   -5    4    7     -0.37      0.00
   -4    4    7     -0.13      0.00
   -3    4    7      0.71      0.00
   -2    4    7     -1.21      0.00
   -1    4    7      1.53      0.00
    0    4    7     -1.61      0.00
    1    4    7      1.44      0.00
    2    4    7     -1.11      0.00
    3    4    7      0.77      0.00
    4    4    7     -0.56      0.00
    5    4    7      0.59      0.00
    6    4    7     -0.79      0.00
    7    4    7      0.99      0.00
    8    4    7     -1.00      0.00
    9    4    7      0.74      0.00
   10    4    7     -0.30      0.00
   11    4    7     -0.12      0.00
   12    4    7      0.33      0.00
   13    4    7     -0.31      0.00
   14    4    7      0.17      0.00
  -14    5    7     -0.47      0.00
  -13    5    7      0.70      0.00
  -12    5    7     -0.83      0.00
  -11    5    7      0.73      0.00
  -10    5    7     -0.36      0.00
   -9    5    7     -0.19      0.00
   -8    5    7      0.65      0.00
   -7    5    7     -0.78      0.00
   -6    5    7      0.48      0.00
   -5    5    7      0.15      0.00
   -4    5    7     -0.79      0.00
   -3    5    7      1.11      0.00
   -2    5    7     -0.91      0.00
   -1    5    7      0.26      0.00
    0    5    7      0.52      0.00
    1    5    7     -1.05      0.00
    2    5    7      1.10      0.00
    3    5    7     -0.67      0.00
    4    5    7      0.04      0.00
    5    5    7      0.43      0.00
    6    5    7     -0.50      0.00
    7    5    7      0.19      0.00
    8    5    7      0.27      0.00
    9    5    7     -0.60      0.00
  -23    0    8      1.71      0.00
  -22    0    8     -2.88      0.00
  -21    0    8      3.55      0.00
  -20    0    8     -3.42      0.00
  -19    0    8      2.55      0.00
  -18    0    8     -1.38      0.00
  -17    0    8      0.55      0.00
  -16    0    8     -0.63      0.00
  -15    0    8      1.91      0.00
  -14    0    8     -4.28      0.00
  -13    0    8      7.15      0.00
  -12    0    8     -9.55      0.00
  -11    0    8     10.50      0.00
  -10    0    8     -9.59      0.00
   -9    0    8      7.43      0.00
   -8    0    8     -5.49      0.00
   -7    0    8      5.27      0.00
   -6    0    8     -7.20      0.00
   -5    0    8     10.03      0.00
   -4    0    8    -11.39      0.00
   -3    0    8      9.17      0.00
   -2    0    8     -3.02      0.00
   -1    0    8     -5.25      0.00
    0    0    8     12.50      0.00
    1    0    8    -15.98      0.00
    2    0    8     14.74      0.00
    3    0    8     -9.90      0.00
    4    0    8      3.83      0.00
    5    0    8      1.21      0.00
    6    0    8     -3.97      0.00
    7    0    8      4.48      0.00
    8    0    8     -3.63      0.00
    9    0    8      2.48      0.00
   10    0    8     -1.81      0.00
   11    0    8      1.86      0.00
   12    0    8     -2.31      0.00
   13    0    8      2.59      0.00
   14    0    8     -2.17      0.00
   15    0    8      0.94      0.00
   16    0    8      0.75      0.00
   17    0    8     -2.23      0.00
   18    0    8      2.95      0.00
   19    0    8     -2.77      0.00
  -25    1    8      0.12      0.00
  -24    1    8     -0.57      0.00
  -23    1    8      0.96      0.00
  -22    1    8     -0.98      0.00
  -21    1    8      0.53      0.00
  -20    1    8      0.23      0.00
  -19    1    8     -0.97      0.00
  -18    1    8      1.38      0.00
  -17    1    8     -1.30      0.00
  -16    1    8      0.86      0.00
  -15    1    8     -0.35      0.00
  -14    1    8      0.14      0.00
  -13    1    8     -0.52      0.00
  -12    1    8      1.51      0.00
  -11    1    8     -2.71      0.00
  -10    1    8      3.42      0.00
   -9    1    8     -2.89      0.00
   -8    1    8      0.84      0.00
   -7    1    8      2.22      0.00
   -6    1    8     -5.11      0.00
   -5    1    8      6.59      0.00
   -4    1    8     -6.18      0.00
   -3    1    8      4.48      0.00
   -2    1    8     -2.91      0.00
   -1    1    8      2.80      0.00
    0    1    8     -4.61      0.00
    1    1    8      7.57      0.00
    2    1    8    -10.27      0.00
    3    1    8     11.40      0.00
    4    1    8    -10.48      0.00
    5    1    8      7.98      0.00
    6    1    8     -4.87      0.00
    7    1    8      2.16      0.00
    8    1    8     -0.39      0.00
    9    1    8     -0.36      0.00
   10    1    8      0.41      0.00
   11    1    8     -0.20      0.00
   12    1    8      0.16      0.00
   13    1    8     -0.50      0.00
   14    1    8      1.17      0.00
   15    1    8     -1.91      0.00
   16    1    8      2.38      0.00
   17    1    8     -2.36      0.00
   18    1    8      1.89      0.00
   19    1    8     -1.18      0.00
  -24    2    8     -0.99      0.00
  -23    2    8      1.24      0.00
  -22    2    8     -1.18      0.00
  -21    2    8      0.72      0.00
  -20    2    8      0.17      0.00
  -19    2    8     -1.37      0.00
  -18    2    8      2.72      0.00
  -17    2    8     -3.99      0.00
  -16    2    8      4.95      0.00
  -15    2    8     -5.47      0.00
  -14    2    8      5.48      0.00
  -13    2    8     -5.03      0.00
  -12    2    8      4.30      0.00
  -11    2    8     -3.43      0.00
  -10    2    8      2.53      0.00
   -9    2    8     -1.57      0.00
   -8    2    8      0.48      0.00
   -7    2    8      0.79      0.00
   -6    2    8     -2.12      0.00
   -5    2    8      3.28      0.00
   -4    2    8     -3.98      0.00
   -3    2    8      4.05      0.00
   -2    2    8     -3.49      0.00
   -1    2    8      2.49      0.00
    0    2    8     -1.32      0.00
    1    2    8      0.27      0.00
    2    2    8      0.42      0.00
    3    2    8     -0.63      0.00
    4    2    8      0.36      0.00
    5    2    8      0.21      0.00
    6    2    8     -0.82      0.00
    7    2    8      1.20      0.00
    8    2    8     -1.26      0.00
    9    2    8      1.08      0.00
   10    2    8     -0.86      0.00
   11    2    8      0.74      0.00
   12    2    8     -0.70      0.00
   13    2    8      0.59      0.00
   14    2    8     -0.30      0.00
   15    2    8     -0.13      0.00
   16    2    8      0.52      0.00
   17    2    8     -0.67      0.00
   18    2    8      0.53      0.00
  -22    3    8     -0.53      0.00
  -21    3    8      0.08      0.00
  -20    3    8      0.59      0.00
  -19    3    8     -1.14      0.00
  -18    3    8      1.29      0.00
  -17    3    8     -0.96      0.00
  -16    3    8      0.29      0.00
  -15    3    8      0.37      0.00
  -14    3    8     -0.69      0.00
  -13    3    8      0.49      0.00
  -12    3    8      0.15      0.00
  -11    3    8     -0.94      0.00
  -10    3    8      1.45      0.00
   -9    3    8     -1.32      0.00
   -8    3    8      0.47      0.00
   -7    3    8      0.79      0.00
   -6    3    8     -1.84      0.00
   -5    3    8      2.06      0.00
   -4    3    8     -1.17      0.00
   -3    3    8     -0.60      0.00
   -2    3    8      2.60      0.00
   -1    3    8     -4.05      0.00
    0    3    8      4.47      0.00
    1    3    8     -3.85      0.00
    2    3    8      2.67      0.00
    3    3    8     -1.58      0.00
    4    3    8      1.10      0.00
    5    3    8     -1.37      0.00
    6    3    8      2.09      0.00
    7    3    8     -2.71      0.00
    8    3    8      2.75      0.00
    9    3    8     -2.01      0.00
   10    3    8      0.75      0.00
   11    3    8      0.49      0.00
   12    3    8     -1.21      0.00
   13    3    8      1.23      0.00
   14    3    8     -0.73      0.00
   15    3    8      0.12      0.00
  -19    4    8      0.30      0.00
  -18    4    8     -0.78      0.00
  -17    4    8      1.12      0.00
  -16    4    8     -1.13      0.00
  -15    4    8      0.76      0.00
  -14    4    8     -0.12      0.00
  -13    4    8     -0.53      0.00
  -12    4    8      0.94      0.00
  -11    4    8     -0.90      0.00
  -10    4    8      0.38      0.00
   -9    4    8      0.43      0.00
   -8    4    8     -1.16      0.00
   -7    4    8      1.39      0.00
   -6    4    8     -0.87      0.00
   -5    4    8     -0.30      0.00
   -4    4    8      1.68      0.00
   -3    4    8     -2.63      0.00
   -2    4    8      2.75      0.00
   -1    4    8     -2.04      0.00
    0    4    8      0.94      0.00
    1    4    8     -0.11      0.00
    2    4    8     -0.03      0.00
    3    4    8     -0.52      0.00
    4    4    8      1.36      0.00
    5    4    8     -1.91      0.00
    6    4    8      1.82      0.00
    7    4    8     -1.08      0.00
    8    4    8      0.07      0.00
    9    4    8      0.76      0.00
   10    4    8     -1.10      0.00
   11    4    8      0.94      0.00
   12    4    8     -0.52      0.00
   13    4    8      0.13      0.00
  -14    5    8      0.29      0.00
  -13    5    8     -0.20      0.00
  -12    5    8     -0.02      0.00
  -11    5    8      0.32      0.00
  -10    5    8     -0.62      0.00
   -9    5    8      0.79      0.00
   -8    5    8     -0.72      0.00
   -7    5    8      0.41      0.00
   -6    5    8     -0.01      0.00
   -5    5    8     -0.28      0.00
   -4    5    8      0.28      0.00
   -3    5    8      0.00      0.00
   -2    5    8     -0.36      0.00
   -1    5    8      0.55      0.00
    0    5    8     -0.43      0.00
    1    5    8      0.07      0.00
    2    5    8      0.32      0.00
    3    5    8     -0.50      0.00
    4    5    8      0.43      0.00
    5    5    8     -0.22      0.00
    6    5    8      0.03      0.00
    7    5    8      0.03      0.00
    8    5    8      0.03      0.00
  -25    1    9     -0.41      0.00
  -24    1    9      1.02      0.00
  -23    1    9     -1.78      0.00
  -22    1    9      2.43      0.00
  -21    1    9     -2.63      0.00
  -20    1    9      2.16      0.00
  -19    1    9     -1.08      0.00
  -18    1    9     -0.32      0.00
  -17    1    9      1.59      0.00
  -16    1    9     -2.29      0.00
  -15    1    9      2.19      0.00
  -14    1    9     -1.31      0.00
  -13    1    9     -0.01      0.00
  -12    1    9      1.22      0.00
  -11    1    9     -1.77      0.00
  -10    1    9      1.45      0.00
   -9    1    9     -0.67      0.00
   -8    1    9      0.30      0.00
   -7    1    9     -1.22      0.00
   -6    1    9      3.63      0.00
   -5    1    9     -6.74      0.00
   -4    1    9      9.05      0.00
   -3    1    9     -9.16      0.00
   -2    1    9      6.61      0.00
   -1    1    9     -2.20      0.00
    0    1    9     -2.41      0.00
    1    1    9      5.53      0.00
    2    1    9     -6.25      0.00
    3    1    9      4.73      0.00
    4    1    9     -1.97      0.00
    5    1    9     -0.82      0.00
    6    1    9      2.71      0.00
    7    1    9     -3.32      0.00
    8    1    9      2.88      0.00
    9    1    9     -1.95      0.00
   10    1    9      1.15      0.00
   11    1    9     -0.83      0.00
   12    1    9      0.96      0.00
   13    1    9     -1.17      0.00
   14    1    9      1.07      0.00
   15    1    9     -0.51      0.00
   16    1    9     -0.31      0.00
   17    1    9      0.99      0.00
   18    1    9     -1.23      0.00
   19    1    9      1.03      0.00
  -24    2    9      0.87      0.00
  -23    2    9     -1.33      0.00
  -22    2    9      1.36      0.00
  -21    2    9     -0.78      0.00
  -20    2    9     -0.27      0.00
  -19    2    9      1.39      0.00
  -18    2    9     -2.13      0.00
  -17    2    9      2.28      0.00
  -16    2    9     -1.91      0.00
  -15    2    9      1.37      0.00
  -14    2    9     -1.07      0.00
  -13    2    9      1.33      0.00
  -12    2    9     -2.20      0.00
  -11    2    9      3.35      0.00
  -10    2    9     -4.10      0.00
   -9    2    9      3.77      0.00
   -8    2    9     -2.05      0.00
   -7    2    9     -0.64      0.00
   -6    2    9      3.24      0.00
   -5    2    9     -4.53      0.00
   -4    2    9      3.86      0.00
   -3    2    9     -1.55      0.00
   -2    2    9     -1.22      0.00
   -1    2    9      3.06      0.00
    0    2    9     -3.18      0.00
    1    2    9      1.72      0.00
    2    2    9      0.38      0.00
    3    2    9     -2.01      0.00
    4    2    9      2.43      0.00
    5    2    9     -1.59      0.00
    6    2    9      0.03      0.00
    7    2    9      1.48      0.00
    8    2    9     -2.26      0.00
    9    2    9      2.09      0.00
   10    2    9     -1.15      0.00
   11    2    9     -0.01      0.00
   12    2    9      0.83      0.00
   13    2    9     -0.98      0.00
   14    2    9      0.52      0.00
   15    2    9      0.19      0.00
   16    2    9     -0.72      0.00
   17    2    9      0.87      0.00
  -22    3    9     -0.04      0.00
  -21    3    9      0.23      0.00
  -20    3    9     -0.30      0.00
  -19    3    9      0.22      0.00
  -18    3    9     -0.10      0.00
  -17    3    9      0.08      0.00
  -16    3    9     -0.29      0.00
  -15    3    9      0.69      0.00
  -14    3    9     -1.18      0.00
  -13    3    9      1.57      0.00
  -12    3    9     -1.72      0.00
  -11    3    9      1.50      0.00
  -10    3    9     -0.86      0.00
   -9    3    9     -0.13      0.00
   -8    3    9      1.18      0.00
   -7    3    9     -1.90      0.00
   -6    3    9      1.90      0.00
   -5    3    9     -1.10      0.00
   -4    3    9     -0.20      0.00
   -3    3    9      1.48      0.00
   -2    3    9     -2.24      0.00
   -1    3    9      2.34      0.00
    0    3    9     -2.03      0.00
    1    3    9      1.75      0.00
    2    3    9     -1.82      0.00
    3    3    9      2.21      0.00
    4    3    9     -2.63      0.00
    5    3    9      2.73      0.00
    6    3    9     -2.37      0.00
    7    3    9      1.63      0.00
    8    3    9     -0.80      0.00
    9    3    9      0.11      0.00
   10    3    9      0.28      0.00
   11    3    9     -0.38      0.00
   12    3    9      0.30      0.00
   13    3    9     -0.15      0.00
   14    3    9      0.02      0.00
  -19    4    9     -0.42      0.00
  -18    4    9      0.47      0.00
  -17    4    9     -0.49      0.00
  -16    4    9      0.52      0.00
  -15    4    9     -0.57      0.00
  -14    4    9      0.60      0.00
  -13    4    9     -0.58      0.00
  -12    4    9      0.49      0.00
  -11    4    9     -0.37      0.00
  -10    4    9      0.33      0.00
   -9    4    9     -0.40      0.00
   -8    4    9      0.56      0.00
   -7    4    9     -0.68      0.00
   -6    4    9      0.64      0.00
   -5    4    9     -0.39      0.00
   -4    4    9     -0.01      0.00
   -3    4    9      0.45      0.00
   -2    4    9     -0.83      0.00
   -1    4    9      1.11      0.00
    0    4    9     -1.23      0.00
    1    4    9      1.17      0.00
    2    4    9     -0.92      0.00
    3    4    9      0.58      0.00
    4    4    9     -0.32      0.00
    5    4    9      0.27      0.00
    6    4    9     -0.45      0.00
    7    4    9      0.71      0.00
    8    4    9     -0.83      0.00
    9    4    9      0.67      0.00
   10    4    9     -0.28      0.00
   11    4    9     -0.12      0.00
   12    4    9      0.34      0.00
  -13    5    9      0.49      0.00
  -12    5    9     -0.65      0.00
  -11    5    9      0.64      0.00
  -10    5    9     -0.40      0.00
   -9    5    9     -0.02      0.00
   -8    5    9      0.42      0.00
   -7    5    9     -0.61      0.00
   -6    5    9      0.45      0.00
   -5    5    9     -0.02      0.00
   -4    5    9     -0.47      0.00
   -3    5    9      0.76      0.00
   -2    5    9     -0.66      0.00
   -1    5    9      0.18      0.00
    0    5    9      0.47      0.00
    1    5    9     -1.01      0.00
    2    5    9      1.19      0.00
    3    5    9     -0.96      0.00
    4    5    9      0.49      0.00
    5    5    9     -0.05      0.00
    6    5    9     -0.14      0.00
    7    5    9      0.02      0.00
  -22    0   10     -2.33      0.00
  -21    0   10      3.15      0.00
  -20    0   10     -3.32      0.00
  -19    0   10      2.74      0.00
  -18    0   10     -1.66      0.00
  -17    0   10      0.58      0.00
  -16    0   10     -0.10      0.00
  -15    0   10      0.64      0.00
  -14    0   10     -2.30      0.00
  -13    0   10      4.66      0.00
  -12    0   10     -6.87      0.00
  -11    0   10      7.99      0.00
  -10    0   10     -7.50      0.00
   -9    0   10      5.77      0.00
   -8    0   10     -3.97      0.00
   -7    0   10      3.46      0.00
   -6    0   10     -4.81      0.00
   -5    0   10      7.31      0.00
   -4    0   10     -9.22      0.00
   -3    0   10      8.81      0.00
   -2    0   10     -5.45      0.00
   -1    0   10      0.08      0.00
    0    0   10      5.30      0.00
    1    0   10     -8.69      0.00
    2    0   10      9.10      0.00
    6    0   10     -2.50      0.00
    7    0   10      3.42      0.00
    8    0   10     -3.18      0.00
    9    0   10      2.39      0.00
   10    0   10     -1.65      0.00
   11    0   10      1.31      0.00
   12    0   10     -1.34      0.00
   13    0   10      1.38      0.00
   14    0   10     -1.07      0.00
   15    0   10      0.26      0.00
   16    0   10      0.82      0.00
   17    0   10     -1.70      0.00
   18    0   10      2.02      0.00
  -24    1   10     -0.42      0.00
  -23    1   10      0.80      0.00
  -22    1   10     -0.88      0.00
  -21    1   10      0.50      0.00
  -20    1   10      0.28      0.00
  -19    1   10     -1.20      0.00
  -18    1   10      1.95      0.00
  -17    1   10     -2.29      0.00
  -16    1   10      2.20      0.00
  -15    1   10     -1.88      0.00
  -14    1   10      1.68      0.00
  -13    1   10     -1.94      0.00
  -12    1   10      2.82      0.00
  -11    1   10     -4.06      0.00
  -10    1   10      5.03      0.00
   -9    1   10     -5.00      0.00
   -8    1   10      3.58      0.00
   -7    1   10     -1.07      0.00
   -6    1   10     -1.61      0.00
   -5    1   10      3.37      0.00
   -4    1   10     -3.63      0.00
   -3    1   10      2.71      0.00
   -2    1   10     -1.62      0.00
   -1    1   10      1.43      0.00
    0    1   10     -2.59      0.00
    1    1   10      4.71      0.00
    2    1   10     -6.80      0.00
    3    1   10      7.92      0.00
    4    1   10     -7.60      0.00
    5    1   10      6.07      0.00
    6    1   10     -3.93      0.00
    7    1   10      1.90      0.00
    8    1   10     -0.45      0.00
    9    1   10     -0.26      0.00
   10    1   10      0.35      0.00
   11    1   10     -0.12      0.00
   12    1   10     -0.08      0.00
   13    1   10      0.03      0.00
   14    1   10      0.32      0.00
   15    1   10     -0.80      0.00
   16    1   10      1.16      0.00
   17    1   10     -1.22      0.00
   18    1   10      0.97      0.00
  -24    2   10     -0.84      0.00
  -23    2   10      1.14      0.00
  -22    2   10     -1.23      0.00
  -21    2   10      0.99      0.00
  -20    2   10     -0.37      0.00
  -19    2   10     -0.60      0.00
  -18    2   10      1.79      0.00
  -17    2   10     -3.01      0.00
  -16    2   10      4.03      0.00
  -15    2   10     -4.67      0.00
  -14    2   10      4.84      0.00
  -13    2   10     -4.58      0.00
  -12    2   10      4.03      0.00
  -11    2   10     -3.34      0.00
  -10    2   10      2.60      0.00
   -9    2   10     -1.81      0.00
   -8    2   10      0.92      0.00
   -7    2   10      0.06      0.00
   -6    2   10     -1.02      0.00
   -5    2   10      1.84      0.00
   -4    2   10     -2.37      0.00
   -3    2   10      2.54      0.00
   -2    2   10     -2.35      0.00
   -1    2   10      1.80      0.00
    0    2   10     -0.96      0.00
    1    2   10     -0.05      0.00
    2    2   10      0.99      0.00
    3    2   10     -1.60      0.00
    4    2   10      1.68      0.00
    5    2   10     -1.26      0.00
    6    2   10      0.59      0.00
    7    2   10      0.00      0.00
    8    2   10     -0.30      0.00
    9    2   10      0.33      0.00
   10    2   10     -0.26      0.00
   11    2   10      0.25      0.00
   12    2   10     -0.31      0.00
   13    2   10      0.33      0.00
   14    2   10     -0.18      0.00
   15    2   10     -0.09      0.00
   16    2   10      0.32      0.00
   17    2   10     -0.36      0.00
  -21    3   10      0.27      0.00
  -20    3   10      0.21      0.00
  -19    3   10     -0.70      0.00
  -18    3   10      0.94      0.00
  -17    3   10     -0.81      0.00
  -16    3   10      0.36      0.00
  -15    3   10      0.19      0.00
  -14    3   10     -0.55      0.00
  -13    3   10      0.51      0.00
  -12    3   10     -0.02      0.00
  -11    3   10     -0.75      0.00
  -10    3   10      1.43      0.00
   -9    3   10     -1.64      0.00
   -8    3   10      1.20      0.00
   -7    3   10     -0.24      0.00
   -6    3   10     -0.77      0.00
   -5    3   10      1.30      0.00
   -4    3   10     -0.98      0.00
   -3    3   10     -0.19      0.00
   -2    3   10      1.79      0.00
   -1    3   10     -3.22      0.00
    0    3   10      3.98      0.00
    1    3   10     -3.85      0.00
    2    3   10      3.03      0.00
    3    3   10     -1.99      0.00
    4    3   10      1.26      0.00
    5    3   10     -1.13      0.00
    6    3   10      1.54      0.00
    7    3   10     -2.06      0.00
    8    3   10      2.23      0.00
    9    3   10     -1.79      0.00
   10    3   10      0.85      0.00
   11    3   10      0.16      0.00
   12    3   10     -0.80      0.00
   13    3   10      0.88      0.00
  -18    4   10     -0.60      0.00
  -17    4   10      0.90      0.00
  -16    4   10     -0.98      0.00
  -15    4   10      0.80      0.00
  -14    4   10     -0.41      0.00
  -13    4   10     -0.06      0.00
  -12    4   10      0.46      0.00
  -11    4   10     -0.58      0.00
  -10    4   10      0.32      0.00
   -9    4   10      0.29      0.00
   -8    4   10     -1.01      0.00
   -7    4   10      1.47      0.00
   -6    4   10     -1.35      0.00
   -5    4   10      0.58      0.00
   -4    4   10      0.55      0.00
   -3    4   10     -1.53      0.00
   -2    4   10      1.91      0.00
   -1    4   10     -1.56      0.00
    0    4   10      0.73      0.00
    1    4   10      0.05      0.00
    2    4   10     -0.35      0.00
    3    4   10      0.06      0.00
    4    4   10      0.57      0.00
    5    4   10     -1.11      0.00
    6    4   10      1.21      0.00
    7    4   10     -0.79      0.00
    8    4   10      0.09      0.00
    9    4   10      0.54      0.00
   10    4   10     -0.83      0.00
   11    4   10      0.75      0.00
  -13    5   10      0.00      0.00
  -12    5   10     -0.18      0.00
  -11    5   10      0.44      0.00
  -10    5   10     -0.71      0.00
   -9    5   10      0.89      0.00
   -8    5   10     -0.87      0.00
   -7    5   10      0.60      0.00
   -6    5   10     -0.21      0.00
   -5    5   10     -0.11      0.00
   -4    5   10      0.17      0.00
   -3    5   10      0.04      0.00
   -2    5   10     -0.36      0.00
   -1    5   10      0.54      0.00
    0    5   10     -0.46      0.00
    1    5   10      0.14      0.00
    2    5   10      0.19      0.00
    3    5   10     -0.36      0.00
    4    5   10      0.31      0.00
    5    5   10     -0.13      0.00
  -24    1   11      0.67      0.00
  -23    1   11     -1.29      0.00
  -22    1   11      1.95      0.00
  -21    1   11     -2.34      0.00
  -20    1   11      2.22      0.00
  -19    1   11     -1.50      0.00
  -18    1   11      0.32      0.00
  -17    1   11      0.98      0.00
  -16    1   11     -2.02      0.00
  -15    1   11      2.45      0.00
  -14    1   11     -2.16      0.00
  -13    1   11      1.31      0.00
  -12    1   11     -0.31      0.00
  -11    1   11     -0.33      0.00
  -10    1   11      0.32      0.00
   -9    1   11      0.15      0.00
   -8    1   11     -0.48      0.00
   -7    1   11      0.00      0.00
   -6    1   11      1.58      0.00
   -5    1   11     -3.85      0.00
   -4    1   11      5.82      0.00
   -3    1   11     -6.46      0.00
   -2    1   11      5.29      0.00
   -1    1   11     -2.61      0.00
    0    1   11     -0.58      0.00
    1    1   11      3.17      0.00
    2    1   11     -4.36      0.00
    3    1   11      3.99      0.00
    4    1   11     -2.46      0.00
    5    1   11      0.51      0.00
    6    1   11      1.10      0.00
    7    1   11     -1.92      0.00
    8    1   11      1.88      0.00
    9    1   11     -1.30      0.00
   10    1   11      0.64      0.00
   11    1   11     -0.28      0.00
   12    1   11      0.29      0.00
   13    1   11     -0.47      0.00
   14    1   11      0.50      0.00
   15    1   11     -0.25      0.00
   16    1   11     -0.17      0.00
   17    1   11      0.49      0.00
  -23    2   11     -1.18      0.00
  -22    2   11      1.31      0.00
  -21    2   11     -0.87      0.00
  -20    2   11     -0.10      0.00
  -19    2   11      1.26      0.00
  -18    2   11     -2.23      0.00
  -17    2   11      2.70      0.00
  -16    2   11     -2.61      0.00
  -15    2   11      2.18      0.00
  -14    2   11     -1.77      0.00
  -13    2   11      1.76      0.00
  -12    2   11     -2.36      0.00
  -11    2   11      3.39      0.00
  -10    2   11     -4.35      0.00
   -9    2   11      4.55      0.00
   -8    2   11     -3.55      0.00
   -7    2   11      1.50      0.00
   -6    2   11      0.84      0.00
   -5    2   11     -2.44      0.00
   -4    2   11      2.59      0.00
   -3    2   11     -1.29      0.00
   -2    2   11     -0.73      0.00
   -1    2   11      2.41      0.00
    0    2   11     -2.99      0.00
    1    2   11      2.33      0.00
    2    2   11     -0.91      0.00
    3    2   11     -0.48      0.00
    4    2   11      1.18      0.00
    5    2   11     -0.94      0.00
    6    2   11     -0.01      0.00
    7    2   11      1.14      0.00
    8    2   11     -1.89      0.00
    9    2   11      1.94      0.00
   10    2   11     -1.31      0.00
   11    2   11      0.36      0.00
   12    2   11      0.44      0.00
   13    2   11     -0.77      0.00
   14    2   11      0.62      0.00
   15    2   11     -0.23      0.00
  -21    3   11      0.14      0.00
  -20    3   11     -0.15      0.00
  -19    3   11      0.03      0.00
  -18    3   11      0.14      0.00
  -17    3   11     -0.23      0.00
  -16    3   11      0.16      0.00
  -15    3   11      0.07      0.00
  -14    3   11     -0.39      0.00
  -13    3   11      0.71      0.00
  -12    3   11     -0.92      0.00
  -11    3   11      0.89      0.00
  -10    3   11     -0.48      0.00
   -9    3   11     -0.33      0.00
   -8    3   11      1.36      0.00
   -7    3   11     -2.22      0.00
   -6    3   11      2.48      0.00
   -5    3   11     -1.94      0.00
   -4    3   11      0.77      0.00
   -3    3   11      0.55      0.00
   -2    3   11     -1.51      0.00
   -1    3   11      1.87      0.00
    0    3   11     -1.77      0.00
    1    3   11      1.56      0.00
    2    3   11     -1.58      0.00
    3    3   11      1.87      0.00
    4    3   11     -2.25      0.00
    5    3   11      2.44      0.00
    6    3   11     -2.27      0.00
    7    3   11      1.77      0.00
    8    3   11     -1.12      0.00
    9    3   11      0.51      0.00
   10    3   11     -0.08      0.00
   11    3   11     -0.14      0.00
  -18    4   11      0.39      0.00
  -17    4   11     -0.36      0.00
  -16    4   11      0.34      0.00
  -15    4   11     -0.39      0.00
  -14    4   11      0.46      0.00
  -13    4   11     -0.48      0.00
  -12    4   11      0.43      0.00
  -11    4   11     -0.34      0.00
  -10    4   11      0.31      0.00
   -9    4   11     -0.40      0.00
   -8    4   11      0.57      0.00
   -7    4   11     -0.71      0.00
   -6    4   11      0.69      0.00
   -5    4   11     -0.50      0.00
   -4    4   11      0.21      0.00
   -3    4   11      0.08      0.00
   -2    4   11     -0.32      0.00
   -1    4   11      0.51      0.00
    0    4   11     -0.62      0.00
    1    4   11      0.63      0.00
    2    4   11     -0.49      0.00
    3    4   11      0.23      0.00
    4    4   11      0.02      0.00
    5    4   11     -0.10      0.00
    6    4   11     -0.03      0.00
    7    4   11      0.29      0.00
    8    4   11     -0.46      0.00
    9    4   11      0.42      0.00
   10    4   11     -0.18      0.00
  -12    5   11     -0.32      0.00
  -11    5   11      0.35      0.00
  -10    5   11     -0.22      0.00
   -9    5   11     -0.05      0.00
   -8    5   11      0.34      0.00
   -7    5   11     -0.50      0.00
   -6    5   11      0.44      0.00
   -5    5   11     -0.19      0.00
   -4    5   11     -0.12      0.00
   -3    5   11      0.31      0.00
   -2    5   11     -0.27      0.00
   -1    5   11     -0.01      0.00
    0    5   11      0.43      0.00
    1    5   11     -0.80      0.00
    2    5   11      0.96      0.00
    3    5   11     -0.85      0.00
  -21    0   12      2.18      0.00
  -20    0   12     -2.53      0.00
  -19    0   12      2.27      0.00
  -18    0   12     -1.45      0.00
  -17    0   12      0.38      0.00
  -16    0   12      0.47      0.00
  -15    0   12     -0.63      0.00
  -14    0   12     -0.17      0.00
  -13    0   12      1.75      0.00
  -12    0   12     -3.50      0.00
  -11    0   12      4.57      0.00
  -10    0   12     -4.39      0.00
   -9    0   12      3.06      0.00
   -8    0   12     -1.42      0.00
   -7    0   12      0.61      0.00
   -6    0   12     -1.31      0.00
   -5    0   12      3.23      0.00
   -4    0   12     -5.25      0.00
   -3    0   12      6.01      0.00
   -2    0   12     -4.78      0.00
   -1    0   12      1.87      0.00
    0    0   12      1.60      0.00
    2    0   12      5.34      0.00
    3    0   12     -4.69      0.00
    4    0   12      2.87      0.00
    5    0   12     -0.70      0.00
    6    0   12     -1.12      0.00
    7    0   12      2.20      0.00
    8    0   12     -2.48      0.00
    9    0   12      2.18      0.00
   10    0   12     -1.67      0.00
   11    0   12      1.24      0.00
   12    0   12     -1.00      0.00
   13    0   12      0.83      0.00
   14    0   12     -0.52      0.00
   15    0   12      0.00      0.00
   16    0   12      0.60      0.00
  -24    1   12     -0.19      0.00
  -23    1   12      0.50      0.00
  -22    1   12     -0.64      0.00
  -21    1   12      0.43      0.00
  -20    1   12      0.19      0.00
  -19    1   12     -1.06      0.00
  -18    1   12      1.92      0.00
  -17    1   12     -2.54      0.00
  -16    1   12      2.78      0.00
  -15    1   12     -2.69      0.00
  -14    1   12      2.54      0.00
  -13    1   12     -2.67      0.00
  -12    1   12      3.32      0.00
  -11    1   12     -4.40      0.00
  -10    1   12      5.42      0.00
   -9    1   12     -5.73      0.00
   -8    1   12      4.86      0.00
   -7    1   12     -2.92      0.00
   -6    1   12      0.58      0.00
   -5    1   12      1.27      0.00
   -4    1   12     -2.01      0.00
   -3    1   12      1.74      0.00
   -2    1   12     -1.09      0.00
   -1    1   12      0.87      0.00
    0    1   12     -1.51      0.00
    1    1   12      2.85      0.00
    2    1   12     -4.28      0.00
    3    1   12      5.17      0.00
    4    1   12     -5.16      0.00
    5    1   12      4.33      0.00
    6    1   12     -3.03      0.00
    7    1   12      1.70      0.00
    8    1   12     -0.67      0.00
    9    1   12      0.08      0.00
   10    1   12      0.08      0.00
   11    1   12      0.03      0.00
   12    1   12     -0.18      0.00
   13    1   12      0.21      0.00
   14    1   12     -0.05      0.00
   15    1   12     -0.22      0.00
   16    1   12      0.43      0.00
  -23    2   12      0.84      0.00
  -22    2   12     -1.06      0.00
  -21    2   12      1.06      0.00
  -20    2   12     -0.72      0.00
  -19    2   12      0.04      0.00
  -18    2   12      0.93      0.00
  -17    2   12     -2.01      0.00
  -16    2   12      2.98      0.00
  -15    2   12     -3.66      0.00
  -14    2   12      3.95      0.00
  -13    2   12     -3.86      0.00
  -12    2   12      3.50      0.00
  -11    2   12     -2.97      0.00
  -10    2   12      2.35      0.00
   -9    2   12     -1.66      0.00
   -8    2   12      0.91      0.00
   -7    2   12     -0.16      0.00
   -6    2   12     -0.51      0.00
   -5    2   12      1.03      0.00
   -4    2   12     -1.39      0.00
   -3    2   12      1.60      0.00
   -2    2   12     -1.64      0.00
   -1    2   12      1.43      0.00
    0    2   12     -0.87      0.00
    1    2   12     -0.02      0.00
    2    2   12      1.04      0.00
    3    2   12     -1.85      0.00
    4    2   12      2.17      0.00
    5    2   12     -1.93      0.00
    6    2   12      1.34      0.00
    7    2   12     -0.72      0.00
    8    2   12      0.32      0.00
    9    2   12     -0.17      0.00
   10    2   12      0.15      0.00
   11    2   12     -0.12      0.00
   12    2   12      0.03      0.00
   13    2   12      0.03      0.00
   14    2   12      0.01      0.00
  -21    3   12      0.35      0.00
  -20    3   12     -0.07      0.00
  -19    3   12     -0.28      0.00
  -18    3   12      0.53      0.00
  -17    3   12     -0.54      0.00
  -16    3   12      0.29      0.00
  -15    3   12      0.10      0.00
  -14    3   12     -0.42      0.00
  -13    3   12      0.48      0.00
  -12    3   12     -0.16      0.00
  -11    3   12     -0.43      0.00
  -10    3   12      1.04      0.00
   -9    3   12     -1.32      0.00
   -8    3   12      1.08      0.00
   -7    3   12     -0.34      0.00
   -6    3   12     -0.59      0.00
   -5    3   12      1.27      0.00
   -4    3   12     -1.33      0.00
   -3    3   12      0.67      0.00
   -2    3   12      0.52      0.00
   -1    3   12     -1.83      0.00
    0    3   12      2.78      0.00
    1    3   12     -3.05      0.00
    2    3   12      2.64      0.00
    3    3   12     -1.83      0.00
    4    3   12      1.07      0.00
    5    3   12     -0.72      0.00
    6    3   12      0.86      0.00
    7    3   12     -1.25      0.00
    8    3   12      1.48      0.00
    9    3   12     -1.30      0.00
   10    3   12      0.71      0.00
  -17    4   12      0.64      0.00
  -16    4   12     -0.78      0.00
  -15    4   12      0.79      0.00
  -14    4   12     -0.67      0.00
  -13    4   12      0.45      0.00
  -12    4   12     -0.21      0.00
  -11    4   12      0.07      0.00
  -10    4   12     -0.16      0.00
   -9    4   12      0.55      0.00
   -8    4   12     -1.12      0.00
   -7    4   12      1.58      0.00
   -6    4   12     -1.65      0.00
   -5    4   12      1.19      0.00
   -4    4   12     -0.34      0.00
   -3    4   12     -0.53      0.00
   -2    4   12      1.05      0.00
   -1    4   12     -1.01      0.00
    0    4   12      0.54      0.00
    1    4   12      0.03      0.00
    2    4   12     -0.35      0.00
    3    4   12      0.26      0.00
    4    4   12      0.14      0.00
    5    4   12     -0.56      0.00
    6    4   12      0.72      0.00
    7    4   12     -0.52      0.00
    8    4   12      0.09      0.00
    9    4   12      0.34      0.00
  -10    5   12     -0.58      0.00
   -9    5   12      0.73      0.00
   -8    5   12     -0.73      0.00
   -7    5   12      0.54      0.00
   -6    5   12     -0.22      0.00
   -3    5   12      0.02      0.00
   -2    5   12     -0.27      0.00
   -1    5   12      0.43      0.00
  -23    1   13     -0.65      0.00
  -22    1   13      1.20      0.00
  -21    1   13     -1.67      0.00
  -20    1   13      1.81      0.00
  -19    1   13     -1.44      0.00
  -18    1   13      0.57      0.00
  -17    1   13      0.62      0.00
  -16    1   13     -1.82      0.00
  -15    1   13      2.68      0.00
  -14    1   13     -2.95      0.00
  -13    1   13      2.60      0.00
  -12    1   13     -1.86      0.00
  -11    1   13      1.13      0.00
  -10    1   13     -0.77      0.00
   -9    1   13      0.82      0.00
   -8    1   13     -1.00      0.00
   -7    1   13      0.85      0.00
   -6    1   13     -0.05      0.00
   -5    1   13     -1.33      0.00
   -4    1   13      2.76      0.00
   -3    1   13     -3.61      0.00
   -2    1   13      3.40      0.00
   -1    1   13     -2.14      0.00
    0    1   13      0.28      0.00
    1    1   13      1.53      0.00
    2    1   13     -2.69      0.00
    3    1   13      2.90      0.00
    4    1   13     -2.24      0.00
    5    1   13      1.07      0.00
    6    1   13      0.10      0.00
    7    1   13     -0.88      0.00
    8    1   13      1.08      0.00
    9    1   13     -0.84      0.00
   10    1   13      0.44      0.00
   11    1   13     -0.17      0.00
   12    1   13      0.12      0.00
   13    1   13     -0.19      0.00
   14    1   13      0.21      0.00
   15    1   13     -0.09      0.00
  -23    2   13     -0.81      0.00
  -22    2   13      1.01      0.00
  -21    2   13     -0.76      0.00
  -20    2   13      0.03      0.00
  -19    2   13      0.97      0.00
  -18    2   13     -1.91      0.00
  -17    2   13      2.50      0.00
  -16    2   13     -2.59      0.00
  -15    2   13      2.29      0.00
  -14    2   13     -1.85      0.00
  -13    2   13      1.64      0.00
  -12    2   13     -1.93      0.00
  -11    2   13      2.69      0.00
  -10    2   13     -3.58      0.00
   -9    2   13      4.02      0.00
   -8    2   13     -3.52      0.00
   -7    2   13      2.03      0.00
   -6    2   13     -0.04      0.00
   -5    2   13     -1.67      0.00
   -4    2   13      2.38      0.00
   -3    2   13     -1.88      0.00
   -2    2   13      0.55      0.00
   -1    2   13      0.90      0.00
    0    2   13     -1.79      0.00
    1    2   13      1.82      0.00
    2    2   13     -1.14      0.00
    3    2   13      0.22      0.00
    4    2   13      0.43      0.00
    5    2   13     -0.51      0.00
    6    2   13      0.04      0.00
    7    2   13      0.70      0.00
    8    2   13     -1.30      0.00
    9    2   13      1.45      0.00
   10    2   13     -1.11      0.00
   11    2   13      0.48      0.00
   12    2   13      0.11      0.00
   13    2   13     -0.42      0.00
  -20    3   13     -0.02      0.00
  -19    3   13     -0.16      0.00
  -18    3   13      0.38      0.00
  -17    3   13     -0.54      0.00
  -16    3   13      0.58      0.00
  -15    3   13     -0.51      0.00
  -14    3   13      0.36      0.00
  -13    3   13     -0.16      0.00
  -12    3   13      0.00      0.00
  -11    3   13      0.02      0.00
  -10    3   13      0.25      0.00
   -9    3   13     -0.86      0.00
   -8    3   13      1.73      0.00
   -7    3   13     -2.51      0.00
   -6    3   13      2.83      0.00
   -5    3   13     -2.45      0.00
   -4    3   13      1.47      0.00
   -3    3   13     -0.25      0.00
   -2    3   13     -0.75      0.00
   -1    3   13      1.28      0.00
    0    3   13     -1.36      0.00
    1    3   13      1.26      0.00
    2    3   13     -1.25      0.00
    3    3   13      1.42      0.00
    4    3   13     -1.68      0.00
    5    3   13      1.85      0.00
    6    3   13     -1.78      0.00
    7    3   13      1.47      0.00
    8    3   13     -1.01      0.00
    9    3   13      0.54      0.00
   10    3   13     -0.18      0.00
  -15    4   13     -0.21      0.00
  -14    4   13      0.29      0.00
  -13    4   13     -0.34      0.00
  -12    4   13      0.31      0.00
  -11    4   13     -0.24      0.00
  -10    4   13      0.23      0.00
   -9    4   13     -0.34      0.00
   -8    4   13      0.54      0.00
   -7    4   13     -0.73      0.00
   -6    4   13      0.77      0.00
   -5    4   13     -0.66      0.00
   -4    4   13      0.46      0.00
   -3    4   13     -0.26      0.00
   -2    4   13      0.10      0.00
   -1    4   13      0.02      0.00
    0    4   13     -0.11      0.00
    1    4   13      0.15      0.00
    2    4   13     -0.09      0.00
    3    4   13     -0.07      0.00
    4    4   13      0.25      0.00
    5    4   13     -0.33      0.00
    6    4   13      0.25      0.00
    7    4   13     -0.05      0.00
  -19    0   14      1.48      0.00
  -18    0   14     -1.05      0.00
  -17    0   14      0.23      0.00
  -16    0   14      0.71      0.00
  -15    0   14     -1.38      0.00
  -14    0   14      1.41      0.00
  -13    0   14     -0.71      0.00
  -12    0   14     -0.42      0.00
  -11    0   14      1.35      0.00
  -10    0   14     -1.52      0.00
   -9    0   14      0.75      0.00
   -8    0   14      0.51      0.00
   -7    0   14     -1.43      0.00
   -6    0   14      1.31      0.00
   -5    0   14     -0.06      0.00
   -4    0   14     -1.70      0.00
   -3    0   14      3.02      0.00
   -2    0   14     -3.15      0.00
   -1    0   14      1.99      0.00
    0    0   14     -0.08      0.00
    1    0   14     -1.75      0.00
    2    0   14      2.83      0.00
    3    0   14     -2.89      0.00
    4    0   14      2.10      0.00
    5    0   14     -0.85      0.00
    6    0   14     -0.42      0.00
    7    0   14      1.37      0.00
    8    0   14     -1.85      0.00
    9    0   14      1.89      0.00
   10    0   14     -1.64      0.00
   11    0   14      1.29      0.00
   12    0   14     -0.94      0.00
   13    0   14      0.62      0.00
  -23    1   14      0.21      0.00
  -22    1   14     -0.38      0.00
  -21    1   14      0.33      0.00
  -20    1   14      0.02      0.00
  -19    1   14     -0.66      0.00
  -18    1   14      1.44      0.00
  -17    1   14     -2.15      0.00
  -16    1   14      2.59      0.00
  -15    1   14     -2.69      0.00
  -14    1   14      2.57      0.00
  -13    1   14     -2.52      0.00
  -12    1   14      2.84      0.00
  -11    1   14     -3.58      0.00
  -10    1   14      4.45      0.00
   -9    1   14     -4.92      0.00
   -8    1   14      4.52      0.00
   -7    1   14     -3.17      0.00
   -6    1   14      1.30      0.00
   -5    1   14      0.41      0.00
   -4    1   14     -1.37      0.00
   -3    1   14      1.49      0.00
   -2    1   14     -1.13      0.00
   -1    1   14      0.87      0.00
    0    1   14     -1.10      0.00
    1    1   14      1.82      0.00
    2    1   14     -2.69      0.00
    3    1   14      3.30      0.00
    4    1   14     -3.40      0.00
    5    1   14      2.99      0.00
    6    1   14     -2.26      0.00
    7    1   14      1.45      0.00
    8    1   14     -0.77      0.00
    9    1   14      0.31      0.00
   10    1   14     -0.09      0.00
   11    1   14      0.06      0.00
   12    1   14     -0.09      0.00
   13    1   14      0.09      0.00
  -22    2   14     -0.76      0.00
  -21    2   14      0.91      0.00
  -20    2   14     -0.81      0.00
  -19    2   14      0.40      0.00
  -18    2   14      0.29      0.00
  -17    2   14     -1.14      0.00
  -16    2   14      1.96      0.00
  -15    2   14     -2.60      0.00
  -14    2   14      2.95      0.00
  -13    2   14     -3.01      0.00
  -12    2   14      2.82      0.00
  -11    2   14     -2.43      0.00
  -10    2   14      1.88      0.00
   -9    2   14     -1.23      0.00
   -8    2   14      0.54      0.00
   -7    2   14      0.06      0.00
   -6    2   14     -0.51      0.00
   -5    2   14      0.79      0.00
   -4    2   14     -0.98      0.00
   -3    2   14      1.15      0.00
   -2    2   14     -1.29      0.00
   -1    2   14      1.26      0.00
    0    2   14     -0.91      0.00
    1    2   14      0.18      0.00
    2    2   14      0.75      0.00
    3    2   14     -1.57      0.00
    4    2   14      1.99      0.00
    5    2   14     -1.90      0.00
    6    2   14      1.45      0.00
    7    2   14     -0.91      0.00
    8    2   14      0.50      0.00
    9    2   14     -0.29      0.00
   10    2   14      0.21      0.00
   11    2   14     -0.17      0.00
   12    2   14      0.13      0.00
  -19    3   14      0.03      0.00
  -18    3   14      0.15      0.00
  -17    3   14     -0.21      0.00
  -16    3   14      0.09      0.00
  -15    3   14      0.17      0.00
  -14    3   14     -0.43      0.00
  -13    3   14      0.54      0.00
  -12    3   14     -0.39      0.00
  -11    3   14      0.04      0.00
  -10    3   14      0.34      0.00
   -9    3   14     -0.52      0.00
   -8    3   14      0.32      0.00
   -7    3   14      0.26      0.00
   -6    3   14     -1.03      0.00
   -5    3   14      1.66      0.00
   -4    3   14     -1.87      0.00
   -3    3   14      1.49      0.00
   -2    3   14     -0.59      0.00
   -1    3   14     -0.54      0.00
    0    3   14      1.52      0.00
    1    3   14     -2.03      0.00
    2    3   14      1.94      0.00
    3    3   14     -1.40      0.00
    4    3   14      0.76      0.00
    5    3   14     -0.35      0.00
    6    3   14      0.31      0.00
    7    3   14     -0.54      0.00
    8    3   14      0.75      0.00
  -15    4   14      0.63      0.00
  -14    4   14     -0.70      0.00
  -13    4   14      0.69      0.00
  -12    4   14     -0.59      0.00
  -11    4   14      0.49      0.00
  -10    4   14     -0.48      0.00
   -9    4   14      0.65      0.00
   -8    4   14     -0.96      0.00
   -7    4   14      1.27      0.00
   -6    4   14     -1.35      0.00
   -5    4   14      1.10      0.00
   -4    4   14     -0.55      0.00
   -3    4   14     -0.09      0.00
   -2    4   14      0.55      0.00
   -1    4   14     -0.68      0.00
    0    4   14      0.48      0.00
    1    4   14     -0.14      0.00
    2    4   14     -0.14      0.00
    3    4   14      0.20      0.00
    4    4   14     -0.05      0.00
    5    4   14     -0.16      0.00
  -22    1   15      0.51      0.00
  -21    1   15     -0.92      0.00
  -20    1   15      1.16      0.00
  -19    1   15     -1.04      0.00
  -18    1   15      0.47      0.00
  -17    1   15      0.49      0.00
  -16    1   15     -1.65      0.00
  -15    1   15      2.70      0.00
  -14    1   15     -3.34      0.00
  -13    1   15      3.39      0.00
  -12    1   15     -2.86      0.00
  -11    1   15      2.00      0.00
  -10    1   15     -1.17      0.00
   -9    1   15      0.65      0.00
   -8    1   15     -0.49      0.00
   -7    1   15      0.49      0.00
   -6    1   15     -0.34      0.00
   -5    1   15     -0.15      0.00
   -4    1   15      0.90      0.00
   -3    1   15     -1.59      0.00
   -2    1   15      1.88      0.00
   -1    1   15     -1.58      0.00
    0    1   15      0.77      0.00
    1    1   15      0.23      0.00
    2    1   15     -1.06      0.00
    3    1   15      1.43      0.00
    4    1   15     -1.27      0.00
    5    1   15      0.73      0.00
    6    1   15     -0.08      0.00
    7    1   15     -0.43      0.00
    8    1   15      0.65      0.00
    9    1   15     -0.60      0.00
   10    1   15      0.43      0.00
   11    1   15     -0.26      0.00
   12    1   15      0.17      0.00
  -21    2   15     -0.57      0.00
  -20    2   15      0.14      0.00
  -19    2   15      0.55      0.00
  -18    2   15     -1.27      0.00
  -17    2   15      1.79      0.00
  -16    2   15     -1.94      0.00
  -15    2   15      1.72      0.00
  -14    2   15     -1.30      0.00
  -13    2   15      0.95      0.00
  -12    2   15     -0.93      0.00
  -11    2   15      1.35      0.00
  -10    2   15     -2.00      0.00
   -9    2   15      2.47      0.00
   -8    2   15     -2.34      0.00
   -7    2   15      1.41      0.00
   -6    2   15      0.08      0.00
   -5    2   15     -1.58      0.00
   -4    2   15      2.49      0.00
   -3    2   15     -2.49      0.00
   -2    2   15      1.67      0.00
   -1    2   15     -0.48      0.00
    0    2   15     -0.54      0.00
    1    2   15      1.02      0.00
    2    2   15     -0.92      0.00
    3    2   15      0.46      0.00
    4    2   15     -0.01      0.00
    5    2   15     -0.17      0.00
    6    2   15      0.01      0.00
    7    2   15      0.39      0.00
    8    2   15     -0.76      0.00
    9    2   15      0.92      0.00
   10    2   15     -0.78      0.00
  -18    3   15      0.48      0.00
  -17    3   15     -0.67      0.00
  -16    3   15      0.77      0.00
  -15    3   15     -0.79      0.00
  -14    3   15      0.74      0.00
  -13    3   15     -0.65      0.00
  -12    3   15      0.55      0.00
  -11    3   15     -0.54      0.00
  -10    3   15      0.72      0.00
   -9    3   15     -1.14      0.00
   -8    3   15      1.75      0.00
   -7    3   15     -2.30      0.00
   -6    3   15      2.53      0.00
   -5    3   15     -2.25      0.00
   -4    3   15      1.50      0.00
   -3    3   15     -0.55      0.00
   -2    3   15     -0.29      0.00
   -1    3   15      0.79      0.00
    0    3   15     -0.95      0.00
    1    3   15      0.92      0.00
    2    3   15     -0.86      0.00
    3    3   15      0.89      0.00
    4    3   15     -0.98      0.00
    5    3   15      1.06      0.00
    6    3   15     -1.03      0.00
  -13    4   15     -0.21      0.00
  -12    4   15      0.18      0.00
  -11    4   15     -0.10      0.00
  -10    4   15      0.07      0.00
   -9    4   15     -0.17      0.00
   -8    4   15      0.39      0.00
   -7    4   15     -0.61      0.00
   -6    4   15      0.73      0.00
   -5    4   15     -0.70      0.00
   -4    4   15      0.56      0.00
   -3    4   15     -0.39      0.00
   -2    4   15      0.25      0.00
   -1    4   15     -0.16      0.00
    0    4   15      0.10      0.00
    1    4   15     -0.09      0.00
    2    4   15      0.13      0.00
    3    4   15     -0.22      0.00
  -18    0   16     -0.62      0.00
  -17    0   16      0.17      0.00
  -16    0   16      0.59      0.00
  -15    0   16     -1.43      0.00
  -14    0   16      2.01      0.00
  -13    0   16     -2.04      0.00
  -12    0   16      1.51      0.00
  -11    0   16     -0.71      0.00
  -10    0   16      0.15      0.00
   -9    0   16     -0.21      0.00
   -8    0   16      0.85      0.00
   -7    0   16     -1.62      0.00
   -6    0   16      1.92      0.00
   -5    0   16     -1.40      0.00
   -4    0   16      0.22      0.00
   -3    0   16      1.04      0.00
   -2    0   16     -1.76      0.00
   -1    0   16      1.61      0.00
    0    0   16     -0.77      0.00
    1    0   16     -0.29      0.00
    2    0   16      1.07      0.00
    3    0   16     -1.27      0.00
    4    0   16      0.94      0.00
    5    0   16     -0.30      0.00
    6    0   16     -0.39      0.00
    7    0   16      0.94      0.00
    8    0   16     -1.26      0.00
    9    0   16      1.36      0.00
   10    0   16     -1.25      0.00
   11    0   16      1.02      0.00
  -21    1   16      0.23      0.00
  -20    1   16     -0.11      0.00
  -19    1   16     -0.24      0.00
  -18    1   16      0.78      0.00
  -17    1   16     -1.39      0.00
  -16    1   16      1.85      0.00
  -15    1   16     -2.03      0.00
  -14    1   16      1.93      0.00
  -13    1   16     -1.73      0.00
  -12    1   16      1.72      0.00
  -11    1   16     -2.07      0.00
  -10    1   16      2.70      0.00
   -9    1   16     -3.23      0.00
   -8    1   16      3.24      0.00
   -7    1   16     -2.52      0.00
   -6    1   16      1.25      0.00
   -5    1   16      0.11      0.00
   -4    1   16     -1.05      0.00
   -3    1   16      1.36      0.00
   -2    1   16     -1.19      0.00
   -1    1   16      0.92      0.00
    0    1   16     -0.90      0.00
    1    1   16      1.22      0.00
    2    1   16     -1.70      0.00
    3    1   16      2.08      0.00
    4    1   16     -2.17      0.00
    5    1   16      1.93      0.00
    6    1   16     -1.49      0.00
    7    1   16      1.00      0.00
    8    1   16     -0.56      0.00
    9    1   16      0.26      0.00
   10    1   16     -0.08      0.00
   11    1   16      0.00      0.00
  -20    2   16     -0.67      0.00
  -19    2   16      0.47      0.00
  -18    2   16     -0.04      0.00
  -17    2   16     -0.54      0.00
  -16    2   16      1.15      0.00
  -15    2   16     -1.67      0.00
  -14    2   16      2.03      0.00
  -13    2   16     -2.19      0.00
  -12    2   16      2.13      0.00
  -11    2   16     -1.82      0.00
  -10    2   16      1.28      0.00
   -9    2   16     -0.57      0.00
   -8    2   16     -0.14      0.00
   -7    2   16      0.70      0.00
   -6    2   16     -0.99      0.00
   -5    2   16      1.06      0.00
   -4    2   16     -1.05      0.00
   -3    2   16      1.09      0.00
   -2    2   16     -1.18      0.00
   -1    2   16      1.20      0.00
    0    2   16     -0.98      0.00
    1    2   16      0.45      0.00
    2    2   16      0.28      0.00
    3    2   16     -0.95      0.00
    4    2   16      1.34      0.00
    5    2   16     -1.35      0.00
    6    2   16      1.07      0.00
    7    2   16     -0.68      0.00
    8    2   16      0.34      0.00
    9    2   16     -0.13      0.00
  -17    3   16      0.02      0.00
  -16    3   16     -0.09      0.00
  -15    3   16      0.27      0.00
  -14    3   16     -0.49      0.00
  -13    3   16      0.62      0.00
  -12    3   16     -0.62      0.00
  -11    3   16      0.48      0.00
  -10    3   16     -0.32      0.00
   -9    3   16      0.27      0.00
   -8    3   16     -0.43      0.00
   -7    3   16      0.81      0.00
   -6    3   16     -1.32      0.00
   -5    3   16      1.75      0.00
   -4    3   16     -1.90      0.00
   -3    3   16      1.64      0.00
   -2    3   16     -0.98      0.00
   -1    3   16      0.10      0.00
    0    3   16      0.71      0.00
    1    3   16     -1.19      0.00
    2    3   16      1.23      0.00
    3    3   16     -0.90      0.00
    4    3   16      0.44      0.00
  -12    4   16     -0.53      0.00
  -11    4   16      0.45      0.00
  -10    4   16     -0.39      0.00
   -9    4   16      0.40      0.00
   -8    4   16     -0.50      0.00
   -7    4   16      0.63      0.00
   -6    4   16     -0.67      0.00
   -5    4   16      0.57      0.00
   -4    4   16     -0.31      0.00
   -3    4   16     -0.01      0.00
   -2    4   16      0.27      0.00
   -1    4   16     -0.39      0.00
    0    4   16      0.33      0.00
  -20    1   17      0.55      0.00
  -19    1   17     -0.52      0.00
  -18    1   17      0.18      0.00
  -17    1   17      0.48      0.00
  -16    1   17     -1.38      0.00
  -15    1   17      2.32      0.00
  -14    1   17     -3.03      0.00
  -13    1   17      3.25      0.00
  -12    1   17     -2.82      0.00
  -11    1   17      1.83      0.00
  -10    1   17     -0.60      0.00
   -9    1   17     -0.46      0.00
   -8    1   17      1.01      0.00
   -7    1   17     -1.00      0.00
   -6    1   17      0.65      0.00
   -5    1   17     -0.34      0.00
   -4    1   17      0.30      0.00
   -3    1   17     -0.56      0.00
   -2    1   17      0.92      0.00
   -1    1   17     -1.11      0.00
    0    1   17      1.00      0.00
    1    1   17     -0.66      0.00
    2    1   17      0.27      0.00
    3    1   17     -0.02      0.00
    4    1   17     -0.03      0.00
    5    1   17     -0.07      0.00
    6    1   17      0.22      0.00
    7    1   17     -0.32      0.00
    8    1   17      0.35      0.00
    9    1   17     -0.33      0.00
  -19    2   17      0.14      0.00
  -18    2   17     -0.57      0.00
  -17    2   17      0.91      0.00
  -16    2   17     -1.04      0.00
  -15    2   17      0.89      0.00
  -14    2   17     -0.53      0.00
  -13    2   17      0.14      0.00
  -12    2   17      0.08      0.00
  -11    2   17      0.02      0.00
  -10    2   17     -0.41      0.00
   -9    2   17      0.87      0.00
   -8    2   17     -1.05      0.00
   -7    2   17      0.71      0.00
   -6    2   17      0.15      0.00
   -5    2   17     -1.22      0.00
   -4    2   17      2.05      0.00
   -3    2   17     -2.29      0.00
   -2    2   17      1.87      0.00
   -1    2   17     -1.02      0.00
    0    2   17      0.12      0.00
    1    2   17      0.48      0.00
    2    2   17     -0.67      0.00
    3    2   17      0.53      0.00
    4    2   17     -0.28      0.00
    5    2   17      0.12      0.00
    6    2   17     -0.14      0.00
    7    2   17      0.29      0.00
  -16    3   17      0.63      0.00
  -15    3   17     -0.67      0.00
  -14    3   17      0.66      0.00
  -13    3   17     -0.63      0.00
  -12    3   17      0.58      0.00
  -11    3   17     -0.59      0.00
  -10    3   17      0.71      0.00
   -9    3   17     -0.98      0.00
   -8    3   17      1.35      0.00
   -7    3   17     -1.66      0.00
   -6    3   17      1.77      0.00
   -5    3   17     -1.56      0.00
   -4    3   17      1.09      0.00
   -3    3   17     -0.49      0.00
   -2    3   17     -0.04      0.00
   -1    3   17      0.39      0.00
    0    3   17     -0.53      0.00
    1    3   17      0.52      0.00
    2    3   17     -0.46      0.00
  -18    0   18     -0.30      0.00
  -17    0   18      0.21      0.00
  -16    0   18      0.18      0.00
  -15    0   18     -0.84      0.00
  -14    0   18      1.55      0.00
  -13    0   18     -1.99      0.00
  -12    0   18      1.92      0.00
  -11    0   18     -1.34      0.00
  -10    0   18      0.56      0.00
   -9    0   18     -0.03      0.00
   -8    0   18      0.04      0.00
   -7    0   18     -0.49      0.00
   -6    0   18      1.01      0.00
   -5    0   18     -1.14      0.00
   -4    0   18      0.71      0.00
   -3    0   18      0.08      0.00
   -2    0   18     -0.77      0.00
   -1    0   18      1.02      0.00
    0    0   18     -0.78      0.00
    1    0   18      0.28      0.00
    2    0   18      0.11      0.00
    3    0   18     -0.20      0.00
    4    0   18      0.02      0.00
    5    0   18      0.26      0.00
    6    0   18     -0.46      0.00
    7    0   18      0.54      0.00
  -19    1   18      0.04      0.00
  -18    1   18      0.22      0.00
  -17    1   18     -0.59      0.00
  -16    1   18      0.96      0.00
  -15    1   18     -1.15      0.00
  -14    1   18      1.10      0.00
  -13    1   18     -0.87      0.00
  -12    1   18      0.67      0.00
  -11    1   18     -0.73      0.00
  -10    1   18      1.09      0.00
   -9    1   18     -1.59      0.00
   -8    1   18      1.88      0.00
   -7    1   18     -1.71      0.00
   -6    1   18      1.05      0.00
   -5    1   18     -0.14      0.00
   -4    1   18     -0.64      0.00
   -3    1   18      1.01      0.00
   -2    1   18     -0.98      0.00
   -1    1   18      0.77      0.00
    0    1   18     -0.64      0.00
    1    1   18      0.74      0.00
    2    1   18     -1.00      0.00
    3    1   18      1.22      0.00
    4    1   18     -1.26      0.00
    5    1   18      1.09      0.00
    6    1   18     -0.78      0.00
    7    1   18      0.46      0.00
  -18    2   18     -0.13      0.00
  -17    2   18     -0.21      0.00
  -16    2   18      0.59      0.00
  -15    2   18     -0.95      0.00
  -14    2   18      1.24      0.00
  -13    2   18     -1.41      0.00
  -12    2   18      1.39      0.00
  -11    2   18     -1.11      0.00
  -10    2   18      0.56      0.00
   -9    2   18      0.19      0.00
   -8    2   18     -0.92      0.00
   -7    2   18      1.42      0.00
   -6    2   18     -1.58      0.00
   -5    2   18      1.45      0.00
   -4    2   18     -1.23      0.00
   -3    2   18      1.07      0.00
   -2    2   18     -1.03      0.00
   -1    2   18      1.00      0.00
    0    2   18     -0.85      0.00
    1    2   18      0.51      0.00
    2    2   18     -0.05      0.00
    3    2   18     -0.38      0.00
    5    2   18     -0.66      0.00
  -13    3   18      0.56      0.00
  -12    3   18     -0.62      0.00
  -11    3   18      0.61      0.00
  -10    3   18     -0.57      0.00
   -9    3   18      0.55      0.00
   -8    3   18     -0.60      0.00
   -7    3   18      0.75      0.00
   -6    3   18     -0.97      0.00
   -5    3   18      1.17      0.00
   -4    3   18     -1.23      0.00
   -3    3   18      1.07      0.00
   -2    3   18     -0.66      0.00
   -1    3   18      0.12      0.00
  -17    1   19      0.43      0.00
  -16    1   19     -0.94      0.00
  -15    1   19      1.52      0.00
  -14    1   19     -2.02      0.00
  -13    1   19      2.20      0.00
  -12    1   19     -1.85      0.00
  -11    1   19      0.93      0.00
  -10    1   19      0.38      0.00
   -9    1   19     -1.63      0.00
   -8    1   19      2.36      0.00
   -7    1   19     -2.35      0.00
   -6    1   19      1.71      0.00
   -5    1   19     -0.83      0.00
   -4    1   19      0.18      0.00
   -3    1   19      0.03      0.00
   -2    1   19      0.15      0.00
   -1    1   19     -0.48      0.00
    0    1   19      0.74      0.00
    1    1   19     -0.84      0.00
    2    1   19      0.83      0.00
    3    1   19     -0.79      0.00
    4    1   19      0.73      0.00
    5    1   19     -0.61      0.00
  -16    2   19     -0.34      0.00
  -15    2   19      0.28      0.00
  -14    2   19     -0.07      0.00
  -13    2   19     -0.23      0.00
  -12    2   19      0.50      0.00
  -11    2   19     -0.57      0.00
  -10    2   19      0.37      0.00
   -9    2   19      0.03      0.00
   -8    2   19     -0.42      0.00
   -7    2   19      0.53      0.00
   -6    2   19     -0.22      0.00
   -5    2   19     -0.39      0.00
   -4    2   19      1.04      0.00
   -3    2   19     -1.39      0.00
   -2    2   19      1.29      0.00
   -1    2   19     -0.80      0.00
    0    2   19      0.18      0.00
    1    2   19      0.30      0.00
    2    2   19     -0.52      0.00
   -8    3   19      0.78      0.00
   -7    3   19     -0.92      0.00
   -6    3   19      0.93      0.00
   -5    3   19     -0.80      0.00
  -17    0   20      0.29      0.00
  -16    0   20     -0.28      0.00
  -15    0   20      0.00      0.00
  -14    0   20      0.54      0.00
  -13    0   20     -1.10      0.00
  -12    0   20      1.38      0.00
  -11    0   20     -1.17      0.00
  -10    0   20      0.53      0.00
   -9    0   20      0.18      0.00
   -8    0   20     -0.57      0.00
   -7    0   20      0.46      0.00
   -6    0   20      0.02      0.00
   -5    0   20     -0.47      0.00
   -4    0   20      0.60      0.00
   -3    0   20     -0.34      0.00
   -2    0   20     -0.06      0.00
   -1    0   20      0.31      0.00
    0    0   20     -0.28      0.00
    1    0   20      0.09      0.00
    2    0   20      0.04      0.00
    3    0   20      0.02      0.00
  -16    1   20      0.30      0.00
  -15    1   20     -0.49      0.00
  -14    1   20      0.52      0.00
  -13    1   20     -0.38      0.00
  -12    1   20      0.16      0.00
  -11    1   20     -0.04      0.00
  -10    1   20      0.15      0.00
   -9    1   20     -0.48      0.00
   -8    1   20      0.84      0.00
   -7    1   20     -0.99      0.00
   -6    1   20      0.79      0.00
   -5    1   20     -0.31      0.00
   -4    1   20     -0.23      0.00
   -3    1   20      0.57      0.00
   -2    1   20     -0.63      0.00
   -1    1   20      0.49      0.00
    0    1   20     -0.36      0.00
    1    1   20      0.36      0.00
    2    1   20     -0.49      0.00
    3    1   20      0.63      0.00
  -14    2   20      0.59      0.00
  -13    2   20     -0.70      0.00
  -12    2   20      0.70      0.00
   -9    2   20      0.60      0.00
   -8    2   20     -1.20      0.00
   -7    2   20      1.56      0.00
   -6    2   20     -1.58      0.00
   -5    2   20      1.33      0.00
   -4    2   20     -0.99      0.00
   -3    2   20      0.73      0.00
   -2    2   20     -0.60      0.00
  -13    1   21      0.95      0.00
  -12    1   21     -0.74      0.00
  -11    1   21      0.14      0.00
  -10    1   21      0.81      0.00
   -9    1   21     -1.79      0.00
   -8    1   21      2.41      0.00
   -7    1   21     -2.38      0.00
   -6    1   21      1.72      0.00
   -5    1   21     -0.75      0.00
   -4    1   21     -0.08      0.00
   -3    1   21      0.49      0.00
   -2    1   21     -0.45      0.00
   -1    1   21      0.15      0.00
  -10    0   22      0.70      0.00
   -9    0   22     -0.16      0.00
   -8    0   22     -0.33      0.00
   -7    0   22      0.51      0.00
   -6    0   22     -0.30      0.00
    1    0    0    -54.61      0.00
   25    0    0      0.15      0.00
    3    1    0      8.34      0.00
    4    1    0     -4.72      0.00
   25    1    0     -0.36      0.00
   24    2    0     -0.47      0.00
   22    3    0     -0.25      0.00
   23    3    0     -0.01      0.00
   18    4    0     -0.40      0.00
   19    4    0      0.10      0.00
   20    4    0      0.17      0.00
   15    5    0      0.22      0.00
   16    5    0     -0.20      0.00
    4    6    0      0.13      0.00
    5    6    0     -0.21      0.00
    6    6    0      0.18      0.00
    7    6    0     -0.08      0.00
    8    6    0      0.00      0.00
    9    6    0      0.01      0.00
   10    6    0      0.04      0.00
  -25    1    1     -0.33      0.00
   -4    1    1      4.50      0.00
   -3    1    1      1.67      0.00
   25    1    1     -0.23      0.00
  -25    2    1     -0.08      0.00
  -24    2    1      0.17      0.00
   24    2    1     -0.16      0.00
  -23    3    1     -0.10      0.00
  -22    3    1     -0.04      0.00
   21    3    1      0.21      0.00
   22    3    1      0.00      0.00
  -20    4    1     -0.01      0.00
  -19    4    1     -0.15      0.00
  -18    4    1      0.38      0.00
   18    4    1     -0.30      0.00
   19    4    1      0.12      0.00
   20    4    1      0.00      0.00
  -17    5    1     -0.03      0.00
  -16    5    1     -0.07      0.00
  -15    5    1      0.29      0.00
   15    5    1      0.24      0.00
   16    5    1     -0.06      0.00
  -10    6    1      0.14      0.00
   -9    6    1     -0.14      0.00
   -8    6    1      0.01      0.00
   -7    6    1      0.16      0.00
   -6    6    1     -0.21      0.00
   -5    6    1      0.05      0.00
    3    6    1      0.65      0.00
    4    6    1     -0.33      0.00
    5    6    1     -0.04      0.00
    6    6    1      0.26      0.00
    7    6    1     -0.26      0.00
    8    6    1      0.11      0.00
    9    6    1      0.05      0.00
  -25    0    2      0.37      0.00
    3    0    2    -22.51      0.00
    4    0    2      8.19      0.00
    5    0    2      0.24      0.00
   24    0    2     -0.35      0.00
   25    0    2     -0.11      0.00
  -25    1    2      0.45      0.00
   24    1    2      0.48      0.00
  -25    2    2      0.31      0.00
   23    2    2      0.47      0.00
   24    2    2     -0.36      0.00
  -23    3    2      0.04      0.00
  -22    3    2      0.27      0.00
   20    3    2     -0.55      0.00
   21    3    2      0.32      0.00
   22    3    2     -0.05      0.00
  -21    4    2     -0.14      0.00
  -20    4    2      0.03      0.00
  -19    4    2      0.33      0.00
  -18    4    2     -0.76      0.00
   17    4    2      0.09      0.00
   18    4    2     -0.14      0.00
   19    4    2     -0.02      0.00
  -17    5    2     -0.14      0.00
  -16    5    2      0.34      0.00
  -15    5    2     -0.44      0.00
   14    5    2      0.15      0.00
   15    5    2      0.04      0.00
  -10    6    2      0.06      0.00
   -9    6    2      0.01      0.00
   -8    6    2     -0.04      0.00
   -7    6    2     -0.01      0.00
   -6    6    2      0.08      0.00
    3    6    2      0.08      0.00
    4    6    2      0.09      0.00
    5    6    2     -0.19      0.00
    6    6    2      0.19      0.00
    7    6    2     -0.09      0.00
    8    6    2     -0.01      0.00
    9    6    2      0.06      0.00
   24    1    3      0.35      0.00
  -25    2    3     -0.14      0.00
   23    2    3      0.10      0.00
  -23    3    3     -0.12      0.00
   19    3    3      0.31      0.00
   20    3    3     -0.16      0.00
   21    3    3      0.02      0.00
  -21    4    3      0.06      0.00
  -20    4    3      0.01      0.00
  -19    4    3     -0.18      0.00
   17    4    3      0.23      0.00
   18    4    3     -0.10      0.00
   19    4    3     -0.01      0.00
  -17    5    3     -0.05      0.00
  -16    5    3     -0.08      0.00
   14    5    3     -0.30      0.00
   15    5    3      0.15      0.00
  -10    6    3      0.14      0.00
   -9    6    3     -0.20      0.00
   -8    6    3      0.12      0.00
   -7    6    3      0.04      0.00
   -6    6    3     -0.17      0.00
    3    6    3      0.50      0.00
    4    6    3     -0.28      0.00
    5    6    3     -0.04      0.00
    6    6    3      0.25      0.00
    7    6    3     -0.27      0.00
    8    6    3      0.14      0.00
  -25    0    4      0.37      0.00
   23    0    4      0.11      0.00
   24    0    4      0.09      0.00
   23    1    4     -0.36      0.00
  -25    2    4      0.43      0.00
   22    2    4     -0.23      0.00
   23    2    4      0.28      0.00
  -24    3    4     -0.20      0.00
  -23    3    4      0.27      0.00
   19    3    4     -0.04      0.00
   20    3    4     -0.05      0.00
   21    3    4     -0.02      0.00
  -21    4    4     -0.09      0.00
  -20    4    4     -0.05      0.00
  -19    4    4      0.46      0.00
   16    4    4      0.28      0.00
   17    4    4      0.02      0.00
   18    4    4     -0.10      0.00
  -17    5    4     -0.17      0.00
  -16    5    4      0.39      0.00
   13    5    4     -0.39      0.00
   14    5    4      0.19      0.00
  -10    6    4      0.00      0.00
   -9    6    4      0.07      0.00
   -8    6    4     -0.12      0.00
   -7    6    4      0.11      0.00
   -6    6    4     -0.06      0.00
    2    6    4     -0.22      0.00
    3    6    4      0.09      0.00
    4    6    4      0.05      0.00
    5    6    4     -0.15      0.00
    6    6    4      0.17      0.00
    7    6    4     -0.10      0.00
   23    1    5     -0.15      0.00
  -25    2    5     -0.26      0.00
   21    2    5     -0.02      0.00
   22    2    5      0.06      0.00
  -24    3    5      0.13      0.00
  -23    3    5     -0.11      0.00
   18    3    5     -0.12      0.00
   19    3    5     -0.06      0.00
   20    3    5      0.14      0.00
  -21    4    5     -0.04      0.00
  -20    4    5      0.13      0.00
   16    4    5     -0.07      0.00
   17    4    5     -0.02      0.00
   18    4    5      0.10      0.00
  -17    5    5     -0.01      0.00
  -16    5    5     -0.10      0.00
   12    5    5      0.06      0.00
   13    5    5      0.14      0.00
  -10    6    5      0.08      0.00
   -9    6    5     -0.18      0.00
   -8    6    5      0.16      0.00
   -7    6    5     -0.01      0.00
   -6    6    5     -0.16      0.00
   -5    6    5      0.20      0.00
    1    6    5      0.01      0.00
    2    6    5     -0.25      0.00
    3    6    5      0.31      0.00
    4    6    5     -0.16      0.00
    5    6    5     -0.05      0.00
    6    6    5      0.20      0.00
  -25    0    6      0.12      0.00
   22    0    6      0.58      0.00
   23    0    6     -0.28      0.00
   22    1    6      0.13      0.00
  -25    2    6      0.57      0.00
   21    2    6      0.02      0.00
  -24    3    6     -0.40      0.00
  -23    3    6      0.54      0.00
   17    3    6     -0.56      0.00
   18    3    6      0.41      0.00
   19    3    6     -0.23      0.00
   20    3    6      0.15      0.00
  -21    4    6     -0.16      0.00
  -20    4    6      0.01      0.00
   15    4    6     -0.30      0.00
   16    4    6      0.06      0.00
   17    4    6      0.10      0.00
  -17    5    6     -0.11      0.00
  -16    5    6      0.30      0.00
  -15    5    6     -0.45      0.00
   11    5    6     -0.35      0.00
   12    5    6      0.33      0.00
   13    5    6     -0.26      0.00
   -9    6    6      0.09      0.00
   -8    6    6     -0.13      0.00
   -7    6    6      0.13      0.00
   -6    6    6     -0.09      0.00
   -5    6    6      0.07      0.00
   -4    6    6     -0.08      0.00
   -3    6    6      0.10      0.00
   -2    6    6     -0.12      0.00
   -1    6    6      0.11      0.00
    0    6    6     -0.11      0.00
    1    6    6      0.11      0.00
    2    6    6     -0.10      0.00
    3    6    6      0.06      0.00
    4    6    6      0.01      0.00
    5    6    6     -0.08      0.00
   21    1    7      0.56      0.00
   22    1    7     -0.21      0.00
  -25    2    7     -0.35      0.00
   20    2    7     -0.21      0.00
   21    2    7     -0.06      0.00
  -24    3    7      0.16      0.00
  -23    3    7     -0.12      0.00
   17    3    7      0.02      0.00
   18    3    7      0.18      0.00
   19    3    7     -0.27      0.00
  -21    4    7     -0.14      0.00
  -20    4    7      0.26      0.00
   15    4    7     -0.06      0.00
   16    4    7      0.05      0.00
  -17    5    7      0.05      0.00
  -16    5    7     -0.13      0.00
  -15    5    7      0.26      0.00
   10    5    7      0.64      0.00
   11    5    7     -0.42      0.00
   12    5    7      0.13      0.00
   -8    6    7      0.17      0.00
   -7    6    7     -0.05      0.00
   -6    6    7     -0.12      0.00
   -5    6    7      0.22      0.00
   -4    6    7     -0.16      0.00
   -3    6    7     -0.03      0.00
   -2    6    7      0.24      0.00
   -1    6    7     -0.32      0.00
    0    6    7      0.24      0.00
    1    6    7     -0.06      0.00
    2    6    7     -0.10      0.00
    3    6    7      0.13      0.00
  -25    0    8     -0.17      0.00
  -24    0    8     -0.57      0.00
   20    0    8      2.00      0.00
   21    0    8     -1.14      0.00
   20    1    8      0.52      0.00
   21    1    8     -0.07      0.00
  -25    2    8      0.61      0.00
   19    2    8     -0.22      0.00
   20    2    8     -0.05      0.00
  -24    3    8     -0.44      0.00
  -23    3    8      0.62      0.00
   16    3    8      0.26      0.00
   17    3    8     -0.34      0.00
   18    3    8      0.24      0.00
  -21    4    8     -0.24      0.00
  -20    4    8      0.08      0.00
   14    4    8      0.03      0.00
   15    4    8      0.01      0.00
  -16    5    8      0.13      0.00
  -15    5    8     -0.25      0.00
    9    5    8     -0.12      0.00
   10    5    8      0.18      0.00
   11    5    8     -0.19      0.00
   -7    6    8      0.06      0.00
   -6    6    8     -0.03      0.00
   -5    6    8      0.03      0.00
   -4    6    8     -0.04      0.00
   -3    6    8      0.04      0.00
   -2    6    8     -0.01      0.00
   -1    6    8     -0.03      0.00
    0    6    8      0.05      0.00
    1    6    8     -0.02      0.00
   20    1    9     -0.62      0.00
  -25    2    9     -0.34      0.00
   18    2    9     -0.67      0.00
   19    2    9      0.35      0.00
  -23    3    9     -0.14      0.00
   15    3    9      0.02      0.00
   16    3    9      0.02      0.00
   17    3    9     -0.10      0.00
  -21    4    9     -0.16      0.00
  -20    4    9      0.31      0.00
   13    4    9     -0.32      0.00
   14    4    9      0.17      0.00
  -16    5    9     -0.10      0.00
  -15    5    9      0.16      0.00
  -14    5    9     -0.30      0.00
    8    5    9      0.26      0.00
    9    5    9     -0.48      0.00
   10    5    9      0.49      0.00
   -3    6    9      0.00      0.00
  -25    0   10     -0.29      0.00
  -24    0   10     -0.25      0.00
  -23    0   10      1.21      0.00
    3    0   10     -6.89      0.00
    4    0   10      3.32      0.00
    5    0   10      0.15      0.00
   19    0   10     -1.73      0.00
   20    0   10      1.11      0.00
  -25    1   10      0.04      0.00
   19    1   10     -0.56      0.00
  -25    2   10      0.48      0.00
   18    2   10      0.18      0.00
  -23    3   10      0.52      0.00
  -22    3   10     -0.54      0.00
   14    3   10     -0.55      0.00
   15    3   10      0.13      0.00
   16    3   10      0.10      0.00
  -20    4   10      0.08      0.00
  -19    4   10      0.23      0.00
   12    4   10     -0.46      0.00
   13    4   10      0.19      0.00
  -15    5   10     -0.06      0.00
  -14    5   10      0.08      0.00
    6    5   10     -0.02      0.00
    7    5   10      0.05      0.00
    8    5   10      0.00      0.00
  -25    1   11     -0.26      0.00
   18    1   11     -0.53      0.00
  -25    2   11     -0.22      0.00
  -24    2   11      0.70      0.00
   16    2   11     -0.11      0.00
   17    2   11      0.25      0.00
  -23    3   11     -0.11      0.00
  -22    3   11     -0.02      0.00
   12    3   11      0.19      0.00
   13    3   11     -0.14      0.00
   14    3   11      0.05      0.00
   15    3   11      0.01      0.00
  -20    4   11      0.28      0.00
  -19    4   11     -0.37      0.00
   11    4   11     -0.11      0.00
   12    4   11      0.27      0.00
  -15    5   11      0.05      0.00
  -14    5   11     -0.09      0.00
  -13    5   11      0.20      0.00
    4    5   11      0.53      0.00
    5    5   11     -0.18      0.00
    6    5   11     -0.03      0.00
    7    5   11      0.02      0.00
  -25    0   12     -0.23      0.00
  -24    0   12      0.00      0.00
  -23    0   12      0.59      0.00
  -22    0   12     -1.42      0.00
    1    0   12     -4.28      0.00
   17    0   12     -1.00      0.00
   18    0   12      1.03      0.00
  -25    1   12     -0.08      0.00
   17    1   12     -0.49      0.00
  -25    2   12      0.23      0.00
  -24    2   12     -0.52      0.00
   15    2   12     -0.14      0.00
   16    2   12      0.23      0.00
  -23    3   12      0.31      0.00
  -22    3   12     -0.44      0.00
   11    3   12     -0.01      0.00
   12    3   12     -0.44      0.00
   13    3   12      0.51      0.00
   14    3   12     -0.28      0.00
  -19    4   12      0.16      0.00
  -18    4   12     -0.42      0.00
   10    4   12     -0.55      0.00
   11    4   12      0.49      0.00
  -14    5   12     -0.05      0.00
  -13    5   12      0.10      0.00
  -12    5   12     -0.21      0.00
  -11    5   12      0.38      0.00
   -5    5   12     -0.05      0.00
   -4    5   12      0.13      0.00
    0    5   12     -0.37      0.00
    1    5   12      0.13      0.00
    2    5   12      0.13      0.00
    3    5   12     -0.25      0.00
    4    5   12      0.19      0.00
    5    5   12     -0.03      0.00
  -25    1   13     -0.07      0.00
  -24    1   13      0.24      0.00
   16    1   13     -0.08      0.00
  -24    2   13      0.39      0.00
   14    2   13      0.40      0.00
   15    2   13     -0.21      0.00
  -22    3   13     -0.03      0.00
  -21    3   13      0.08      0.00
   11    3   13     -0.01      0.00
   12    3   13      0.04      0.00
   13    3   13      0.03      0.00
  -19    4   13     -0.27      0.00
  -18    4   13      0.25      0.00
  -17    4   13     -0.19      0.00
  -16    4   13      0.16      0.00
    8    4   13     -0.12      0.00
    9    4   13      0.15      0.00
  -12    5   13     -0.04      0.00
  -11    5   13      0.09      0.00
  -10    5   13     -0.06      0.00
   -9    5   13     -0.07      0.00
   -8    5   13      0.22      0.00
   -7    5   13     -0.30      0.00
   -6    5   13      0.27      0.00
   -5    5   13     -0.13      0.00
   -4    5   13     -0.02      0.00
   -3    5   13      0.12      0.00
   -2    5   13     -0.11      0.00
   -1    5   13     -0.01      0.00
    0    5   13      0.19      0.00
    1    5   13     -0.37      0.00
    2    5   13      0.45      0.00
    3    5   13     -0.41      0.00
  -25    0   14     -0.13      0.00
  -24    0   14      0.17      0.00
  -23    0   14      0.04      0.00
  -22    0   14     -0.49      0.00
  -21    0   14      1.04      0.00
  -20    0   14     -1.44      0.00
   14    0   14     -0.28      0.00
   15    0   14     -0.07      0.00
  -25    1   14     -0.14      0.00
  -24    1   14      0.01      0.00
   14    1   14     -0.01      0.00
   15    1   14     -0.11      0.00
  -24    2   14     -0.21      0.00
  -23    2   14      0.49      0.00
   13    2   14     -0.11      0.00
   14    2   14      0.13      0.00
  -21    3   14      0.33      0.00
  -20    3   14     -0.23      0.00
    9    3   14     -0.73      0.00
   10    3   14      0.45      0.00
   11    3   14     -0.07      0.00
   12    3   14     -0.17      0.00
  -18    4   14     -0.20      0.00
  -17    4   14      0.36      0.00
  -16    4   14     -0.51      0.00
    6    4   14      0.28      0.00
    7    4   14     -0.20      0.00
    8    4   14     -0.03      0.00
  -10    5   14     -0.25      0.00
   -9    5   14      0.35      0.00
   -8    5   14     -0.40      0.00
   -7    5   14      0.32      0.00
   -6    5   14     -0.14      0.00
   -5    5   14     -0.03      0.00
   -4    5   14      0.09      0.00
   -3    5   14      0.00      0.00
   -2    5   14     -0.17      0.00
   -1    5   14      0.28      0.00
    0    5   14     -0.25      0.00
  -24    1   15     -0.06      0.00
  -23    1   15     -0.13      0.00
   13    1   15     -0.12      0.00
   14    1   15      0.06      0.00
  -23    2   15     -0.42      0.00
  -22    2   15      0.64      0.00
   11    2   15      0.44      0.00
   12    2   15     -0.11      0.00
  -21    3   15      0.03      0.00
  -20    3   15      0.07      0.00
  -19    3   15     -0.26      0.00
    7    3   15      0.87      0.00
    8    3   15     -0.61      0.00
    9    3   15      0.32      0.00
   10    3   15     -0.09      0.00
  -17    4   15      0.00      0.00
  -16    4   15     -0.02      0.00
  -15    4   15     -0.05      0.00
  -14    4   15      0.15      0.00
    4    4   15      0.30      0.00
    5    4   15     -0.32      0.00
    6    4   15      0.23      0.00
  -24    0   16      0.18      0.00
  -23    0   16     -0.21      0.00
  -22    0   16      0.07      0.00
  -21    0   16      0.20      0.00
  -20    0   16     -0.51      0.00
  -19    0   16      0.70      0.00
   12    0   16     -0.72      0.00
   13    0   16      0.40      0.00
  -24    1   16      0.05      0.00
  -23    1   16      0.05      0.00
  -22    1   16     -0.18      0.00
   12    1   16      0.03      0.00
  -22    2   16     -0.44      0.00
  -21    2   16      0.63      0.00
   10    2   16      0.04      0.00
   11    2   16     -0.03      0.00
  -20    3   16     -0.24      0.00
  -19    3   16      0.17      0.00
  -18    3   16     -0.06      0.00
    5    3   16     -0.09      0.00
    6    3   16      0.00      0.00
    7    3   16     -0.11      0.00
    8    3   16      0.26      0.00
    9    3   16     -0.31      0.00
  -15    4   16      0.34      0.00
  -14    4   16     -0.48      0.00
  -13    4   16      0.55      0.00
    1    4   16     -0.16      0.00
    2    4   16     -0.02      0.00
    3    4   16      0.14      0.00
    4    4   16     -0.17      0.00
  -23    1   17      0.08      0.00
  -22    1   17      0.11      0.00
  -21    1   17     -0.36      0.00
   10    1   17      0.29      0.00
   11    1   17     -0.23      0.00
  -21    2   17     -0.38      0.00
  -20    2   17      0.21      0.00
    8    2   17     -0.46      0.00
    9    2   17      0.53      0.00
  -19    3   17     -0.20      0.00
  -18    3   17      0.37      0.00
  -17    3   17     -0.53      0.00
    3    3   17      0.40      0.00
    4    3   17     -0.37      0.00
    5    3   17      0.37      0.00
    6    3   17     -0.38      0.00
    7    3   17      0.35      0.00
  -13    4   17     -0.13      0.00
  -12    4   17      0.09      0.00
  -11    4   17      0.01      0.00
  -10    4   17     -0.08      0.00
   -9    4   17      0.04      0.00
   -8    4   17      0.13      0.00
   -7    4   17     -0.34      0.00
   -6    4   17      0.49      0.00
   -5    4   17     -0.52      0.00
   -4    4   17      0.43      0.00
   -3    4   17     -0.28      0.00
   -2    4   17      0.15      0.00
   -1    4   17     -0.07      0.00
    0    4   17      0.06      0.00
    1    4   17     -0.10      0.00
  -22    0   18      0.17      0.00
  -21    0   18     -0.13      0.00
  -20    0   18      0.00      0.00
  -19    0   18      0.18      0.00
    8    0   18     -0.55      0.00
    9    0   18      0.55      0.00
   10    0   18     -0.54      0.00
  -22    1   18     -0.05      0.00
  -21    1   18      0.12      0.00
  -20    1   18     -0.14      0.00
    8    1   18     -0.23      0.00
    9    1   18      0.09      0.00
  -20    2   18     -0.41      0.00
  -19    2   18      0.35      0.00
    4    2   18      0.62      0.00
    6    2   18      0.52      0.00
    7    2   18     -0.32      0.00
    8    2   18      0.12      0.00
  -17    3   18      0.08      0.00
  -16    3   18     -0.13      0.00
  -15    3   18      0.26      0.00
  -14    3   18     -0.42      0.00
    0    3   18      0.37      0.00
    1    3   18     -0.65      0.00
    2    3   18      0.63      0.00
    3    3   18     -0.40      0.00
    4    3   18      0.12      0.00
    5    3   18      0.07      0.00
  -10    4   18     -0.14      0.00
   -9    4   18      0.10      0.00
   -8    4   18     -0.09      0.00
   -7    4   18      0.10      0.00
   -6    4   18     -0.10      0.00
   -5    4   18      0.08      0.00
   -4    4   18     -0.04      0.00
   -3    4   18     -0.01      0.00
  -21    1   19     -0.09      0.00
  -20    1   19      0.15      0.00
  -19    1   19     -0.11      0.00
  -18    1   19     -0.07      0.00
    6    1   19      0.41      0.00
    7    1   19     -0.20      0.00
  -19    2   19     -0.10      0.00
  -18    2   19     -0.07      0.00
  -17    2   19      0.24      0.00
    3    2   19      0.50      0.00
    4    2   19     -0.37      0.00
    5    2   19      0.27      0.00
    6    2   19     -0.25      0.00
  -15    3   19     -0.36      0.00
  -14    3   19      0.37      0.00
  -13    3   19     -0.36      0.00
  -12    3   19      0.34      0.00
  -11    3   19     -0.36      0.00
  -10    3   19      0.44      0.00
   -9    3   19     -0.59      0.00
   -4    3   19      0.56      0.00
   -3    3   19     -0.29      0.00
   -2    3   19      0.06      0.00
   -1    3   19      0.10      0.00
    0    3   19     -0.19      0.00
    1    3   19      0.22      0.00
    2    3   19     -0.19      0.00
  -20    0   20      0.11      0.00
  -19    0   20     -0.02      0.00
  -18    0   20     -0.14      0.00
    4    0   20     -0.20      0.00
    5    0   20      0.32      0.00
    6    0   20     -0.28      0.00
  -19    1   20      0.13      0.00
  -18    1   20     -0.09      0.00
  -17    1   20     -0.07      0.00
    4    1   20     -0.66      0.00
    5    1   20      0.54      0.00
  -17    2   20     -0.04      0.00
  -16    2   20      0.23      0.00
  -15    2   20     -0.42      0.00
  -11    2   20     -0.48      0.00
  -10    2   20      0.02      0.00
   -1    2   20      0.53      0.00
    0    2   20     -0.43      0.00
    1    2   20      0.26      0.00
    2    2   20     -0.06      0.00
    3    2   20     -0.10      0.00
  -12    3   20     -0.31      0.00
  -11    3   20      0.33      0.00
  -10    3   20     -0.32      0.00
   -9    3   20      0.29      0.00
   -8    3   20     -0.24      0.00
   -7    3   20      0.22      0.00
   -6    3   20     -0.26      0.00
   -5    3   20      0.33      0.00
   -4    3   20     -0.38      0.00
   -3    3   20      0.34      0.00
   -2    3   20     -0.18      0.00
  -17    1   21      0.32      0.00
  -16    1   21     -0.48      0.00
  -15    1   21      0.68      0.00
  -14    1   21     -0.87      0.00
    0    1   21      0.20      0.00
    1    1   21     -0.47      0.00
    2    1   21      0.66      0.00
    3    1   21     -0.77      0.00
  -15    2   21      0.08      0.00
  -14    2   21     -0.05      0.00
  -13    2   21     -0.07      0.00
  -12    2   21      0.24      0.00
  -11    2   21     -0.36      0.00
  -10    2   21      0.31      0.00
   -9    2   21     -0.05      0.00
   -8    2   21     -0.31      0.00
   -7    2   21      0.58      0.00
   -6    2   21     -0.57      0.00
   -5    2   21      0.27      0.00
   -4    2   21      0.18      0.00
   -3    2   21     -0.52      0.00
   -2    2   21      0.59      0.00
   -1    2   21     -0.37      0.00
    0    2   21      0.02      0.00
  -16    0   22     -0.46      0.00
  -15    0   22      0.47      0.00
  -14    0   22     -0.20      0.00
  -13    0   22     -0.29      0.00
  -12    0   22      0.77      0.00
  -11    0   22     -0.95      0.00
   -5    0   22     -0.07      0.00
   -4    0   22      0.34      0.00
   -3    0   22     -0.36      0.00
   -2    0   22      0.23      0.00
   -1    0   22     -0.13      0.00
    0    0   22      0.17      0.00
  -15    1   22     -0.17      0.00
  -14    1   22      0.26      0.00
  -13    1   22     -0.23      0.00
  -12    1   22      0.06      0.00
  -11    1   22      0.14      0.00
  -10    1   22     -0.23      0.00
   -9    1   22      0.12      0.00
   -8    1   22      0.13      0.00
   -7    1   22     -0.36      0.00
   -6    1   22      0.42      0.00
   -5    1   22     -0.25      0.00
   -4    1   22     -0.04      0.00
   -3    1   22      0.28      0.00
   -2    1   22     -0.35      0.00
   -1    1   22      0.27      0.00
  -10    2   22     -0.02      0.00
   -9    2   22      0.38      0.00
   -8    2   22     -0.73      0.00
   -7    2   22      0.92      0.00
   -6    2   22     -0.89      0.00
   -5    2   22      0.68      0.00
    0    0    0      0.00      0.00
# SQUEEZE RESULTS
# Note: Data are Listed for all Voids in the P1 Unit Cell
# i.e. Centre of Gravity, Solvent Accessible Volume,
# Recovered number of Electrons in the Void and
# Details about the Squeezed Material
loop_
  _platon_squeeze_void_nr
  _platon_squeeze_void_average_x
  _platon_squeeze_void_average_y
  _platon_squeeze_void_average_z
  _platon_squeeze_void_volume
  _platon_squeeze_void_count_electrons
  _platon_squeeze_void_content
   1  0.500 -0.081  0.000       109        30 ' '
   2  0.500 -0.030  0.500       109        30 ' '
_platon_squeeze_void_probe_radius                  1.20
_platon_squeeze_details
(replace by semicolon in column 1 when used as .sqf)
TITL shelxt_a.res in P2(1)/c
CELL   20.7476    4.9407   17.6687     90.00    107.38     90.00
SPGR P21/c
# Solvent Accessible Volume =     220.3
# Electrons Found in S.A.V. =      60.3
# Note: Atoms in Void as Cxxx and Qxxx all others
C101 0.612 0.357 0.988 !       4.15 eA-3
C102 0.440 0.998 0.516 !       3.72 eA-3
C103 0.480 0.249 0.035 !       3.49 eA-3
C104 0.462 0.696 0.989 !       3.11 eA-3
Q105 0.109 0.132 0.852 !       0.60 eA-3
Q106 0.577 0.442 0.528 !       0.52 eA-3
Q107 0.081 0.452 0.943 !       0.51 eA-3
(replace by semicolon in column 1 when used as .sqf)
;
_shelx_fab_checksum   18914

