 
data_shelx
 
_audit_creation_method            'SHELXL-2016/6'
_shelx_SHELXL_version_number      '2016/6'
_chemical_name_systematic         ?
_chemical_name_common             ?
_chemical_melting_point           ?
_chemical_formula_moiety          ?
_chemical_formula_sum
 'C21 H18 N4 O Se' 
_chemical_formula_weight          421.35
_chemical_oxdiff_usercomment 'Thomas Fellowes Se-dimer DMPA from DCM/pentane'

loop_
 _atom_type_symbol
 _atom_type_description
 _atom_type_scat_dispersion_real
 _atom_type_scat_dispersion_imag
 _atom_type_scat_source
 'C'  'C'   0.0181   0.0091
 'International Tables Vol C Tables 4.2.6.8 and 6.1.1.4'
 'H'  'H'   0.0000   0.0000
 'International Tables Vol C Tables 4.2.6.8 and 6.1.1.4'
 'N'  'N'   0.0311   0.0180
 'International Tables Vol C Tables 4.2.6.8 and 6.1.1.4'
 'O'  'O'   0.0492   0.0322
 'International Tables Vol C Tables 4.2.6.8 and 6.1.1.4'
 'Se'  'Se'  -0.7943   1.1372
 'International Tables Vol C Tables 4.2.6.8 and 6.1.1.4'
 
_space_group_crystal_system       triclinic
_space_group_IT_number            2
_space_group_name_H-M_alt         'P -1'
_space_group_name_Hall            '-P 1'
 
_shelx_space_group_comment
;
The symmetry employed for this shelxl refinement is uniquely defined
by the following loop, which should always be used as a source of
symmetry information in preference to the above space-group names.
They are only intended as comments.
;
 
loop_
 _space_group_symop_operation_xyz
 'x, y, z'
 '-x, -y, -z'
 
_cell_length_a                    8.8117(5)
_cell_length_b                    10.7693(6)
_cell_length_c                    10.9876(8)
_cell_angle_alpha                 111.669(6)
_cell_angle_beta                  109.267(6)
_cell_angle_gamma                 96.568(5)
_cell_volume                      880.94(11)
_cell_formula_units_Z             2
_cell_measurement_temperature   130.00(10) 
_cell_measurement_reflns_used   3226
_cell_measurement_theta_min     4.7200
_cell_measurement_theta_max     76.8890
 
_exptl_crystal_description        slab
_exptl_crystal_colour             colourless
_exptl_crystal_density_meas       ?
_exptl_crystal_density_method     ?
_exptl_crystal_density_diffrn     1.588          
_exptl_crystal_F_000              428
_exptl_transmission_factor_min    ?
_exptl_transmission_factor_max    ?
_exptl_crystal_size_max                             0.122
_exptl_crystal_size_mid                             0.094
_exptl_crystal_size_min                             0.056
_exptl_absorpt_coefficient_mu     3.041
_shelx_estimated_absorpt_T_min    ?
_shelx_estimated_absorpt_T_max    ?
_exptl_absorpt_correction_T_min                   0.91084
_exptl_absorpt_correction_T_max                   1.00000
_exptl_absorpt_correction_type            multi-scan
_exptl_absorpt_process_details
;
CrysAlisPro 1.171.38.43 (Rigaku Oxford Diffraction, 2015)
Empirical absorption correction using spherical harmonics,
 implemented in SCALE3 ABSPACK scaling algorithm.
;
_oxdiff_exptl_absorpt_empirical_full_min           0.762
_oxdiff_exptl_absorpt_empirical_full_max           1.325
_oxdiff_exptl_absorpt_empirical_details
;
Empirical correction (ABSPACK) includes:
- Absorption correction using spherical harmonics
- Frame scaling
;
_diffrn_ambient_temperature 130.00(10) 
_diffrn_ambient_environment N~2~
_diffrn_source 'micro-focus sealed X-ray tube'
_diffrn_source_type 'SuperNova (Cu) X-ray Source'
_diffrn_radiation_probe x-ray
_diffrn_radiation_type 'Cu K\a'
_diffrn_radiation_wavelength 1.54184
_diffrn_radiation_monochromator mirror
_diffrn_measurement_device 'four-circle diffractometer'
_diffrn_measurement_device_type 'SuperNova, Dual, Cu at zero, Atlas'
_diffrn_detector 'CCD plate'
_diffrn_detector_type Atlas
_diffrn_measurement_method '\w scans'
_diffrn_detector_area_resol_mean  ?
_diffrn_reflns_number             6601
_diffrn_reflns_av_unetI/netI      0.0335
_diffrn_reflns_av_R_equivalents   0.0243
_diffrn_reflns_limit_h_min        -11
_diffrn_reflns_limit_h_max        10
_diffrn_reflns_limit_k_min        -13
_diffrn_reflns_limit_k_max        12
_diffrn_reflns_limit_l_min        -13
_diffrn_reflns_limit_l_max        13
_diffrn_reflns_theta_min          4.588
_diffrn_reflns_theta_max          76.983
_diffrn_reflns_theta_full         67.684
_diffrn_measured_fraction_theta_max   0.975
_diffrn_measured_fraction_theta_full  0.996
_diffrn_reflns_Laue_measured_fraction_max    0.975
_diffrn_reflns_Laue_measured_fraction_full   0.996
_diffrn_reflns_point_group_measured_fraction_max   0.975
_diffrn_reflns_point_group_measured_fraction_full  0.996
_reflns_number_total              3635
_reflns_number_gt                 3346
_reflns_threshold_expression      'I > 2\s(I)'
_reflns_Friedel_coverage          0.000
_reflns_Friedel_fraction_max      .
_reflns_Friedel_fraction_full     .
 
_reflns_special_details
;
 Reflections were merged by SHELXL according to the crystal
 class for the calculation of statistics and refinement.
 
 _reflns_Friedel_fraction is defined as the number of unique
 Friedel pairs measured divided by the number that would be
 possible theoretically, ignoring centric projections and
 systematic absences.
;
 
_computing_data_collection     'CrysAlisPro 1.171.38.43 (Rigaku OD, 2015)'
_computing_cell_refinement     'CrysAlisPro 1.171.38.43 (Rigaku OD, 2015)'
_computing_data_reduction      'CrysAlisPro 1.171.38.43 (Rigaku OD, 2015)'
_computing_structure_solution     ?
_computing_structure_refinement 'SHELXL-2016/6 (Sheldrick, 2016)'
_computing_molecular_graphics     ?
_computing_publication_material   ?
_refine_special_details           ?
_refine_ls_structure_factor_coef  Fsqd
_refine_ls_matrix_type            full
_refine_ls_weighting_scheme       calc
_refine_ls_weighting_details
'w=1/[\s^2^(Fo^2^)+(0.0358P)^2^+0.5425P] where P=(Fo^2^+2Fc^2^)/3'
_atom_sites_solution_primary      ?
_atom_sites_solution_secondary    ?
_atom_sites_solution_hydrogens    geom
_refine_ls_hydrogen_treatment     constr
_refine_ls_extinction_method      none
_refine_ls_extinction_coef        .
_refine_ls_number_reflns          3635
_refine_ls_number_parameters      246
_refine_ls_number_restraints      0
_refine_ls_R_factor_all           0.0325
_refine_ls_R_factor_gt            0.0290
_refine_ls_wR_factor_ref          0.0761
_refine_ls_wR_factor_gt           0.0737
_refine_ls_goodness_of_fit_ref    1.048
_refine_ls_restrained_S_all       1.048
_refine_ls_shift/su_max           0.001
_refine_ls_shift/su_mean          0.000
 
loop_
 _atom_site_label
 _atom_site_type_symbol
 _atom_site_fract_x
 _atom_site_fract_y
 _atom_site_fract_z
 _atom_site_U_iso_or_equiv
 _atom_site_adp_type
 _atom_site_occupancy
 _atom_site_site_symmetry_order  
 _atom_site_calc_flag
 _atom_site_refinement_flags_posn
 _atom_site_refinement_flags_adp
 _atom_site_refinement_flags_occupancy
 _atom_site_disorder_assembly
 _atom_site_disorder_group
C1 C 0.6247(2) 0.3655(2) 0.6631(2) 0.0196(4) Uani 1 1 d . . . . .
C2 C 0.4929(2) 0.4282(2) 0.6478(2) 0.0191(4) Uani 1 1 d . . . . .
C3 C 0.4905(3) 0.5368(2) 0.7655(2) 0.0240(4) Uani 1 1 d . . . . .
H3 H 0.402381 0.580392 0.754025 0.029 Uiso 1 1 calc R U . . .
C4 C 0.6182(3) 0.5806(2) 0.8995(2) 0.0284(5) Uani 1 1 d . . . . .
H4 H 0.617255 0.653885 0.980477 0.034 Uiso 1 1 calc R U . . .
C5 C 0.7476(3) 0.5166(2) 0.9148(2) 0.0272(4) Uani 1 1 d . . . . .
H5 H 0.833866 0.546275 1.006916 0.033 Uiso 1 1 calc R U . . .
C6 C 0.7530(3) 0.4107(2) 0.7983(2) 0.0235(4) Uani 1 1 d . . . . .
H6 H 0.843023 0.369202 0.810146 0.028 Uiso 1 1 calc R U . . .
C7 C 0.3616(2) 0.3731(2) 0.5031(2) 0.0186(4) Uani 1 1 d . . . . .
C8 C 0.2994(2) 0.2021(2) 0.2647(2) 0.0199(4) Uani 1 1 d . . . . .
C9 C 0.1502(2) 0.2497(2) 0.2231(2) 0.0189(4) Uani 1 1 d . . . . .
C10 C 0.1185(2) 0.3523(2) 0.3292(2) 0.0193(4) Uani 1 1 d . . . . .
C11 C -0.0296(3) 0.3929(2) 0.2868(2) 0.0226(4) Uani 1 1 d . . . . .
H11 H -0.055609 0.459395 0.356622 0.027 Uiso 1 1 calc R U . . .
C12 C -0.1367(3) 0.3363(2) 0.1443(2) 0.0244(4) Uani 1 1 d . . . . .
H12 H -0.235325 0.365291 0.116781 0.029 Uiso 1 1 calc R U . . .
C13 C -0.1021(3) 0.2365(2) 0.0394(2) 0.0248(4) Uani 1 1 d . . . . .
H13 H -0.176193 0.199275 -0.058578 0.030 Uiso 1 1 calc R U . . .
C14 C 0.0389(3) 0.1929(2) 0.0786(2) 0.0226(4) Uani 1 1 d . . . . .
H14 H 0.061402 0.124112 0.007928 0.027 Uiso 1 1 calc R U . . .
C15 C 0.8525(3) 0.0826(2) 0.6564(2) 0.0227(4) Uani 1 1 d . . . . .
H15 H 0.751226 0.040367 0.655584 0.027 Uiso 1 1 calc R U . . .
C16 C 0.9929(3) 0.0433(2) 0.7109(2) 0.0210(4) Uani 1 1 d . . . . .
H16 H 0.987197 -0.024319 0.746631 0.025 Uiso 1 1 calc R U . . .
C17 C 1.1464(2) 0.1037(2) 0.7136(2) 0.0193(4) Uani 1 1 d . . . . .
C18 C 1.1417(3) 0.2033(2) 0.6580(2) 0.0233(4) Uani 1 1 d . . . . .
H18 H 1.240288 0.248374 0.657173 0.028 Uiso 1 1 calc R U . . .
C19 C 0.9942(3) 0.2348(2) 0.6052(2) 0.0254(4) Uani 1 1 d . . . . .
H19 H 0.994300 0.300915 0.567120 0.030 Uiso 1 1 calc R U . . .
C20 C 1.2890(3) -0.0338(2) 0.8225(3) 0.0280(5) Uani 1 1 d . . . . .
H20A H 1.272031 0.003825 0.911546 0.042 Uiso 1 1 calc R U . . .
H20B H 1.396733 -0.056013 0.841899 0.042 Uiso 1 1 calc R U . . .
H20C H 1.199232 -0.118166 0.752597 0.042 Uiso 1 1 calc R U . . .
C21 C 1.4418(3) 0.1323(2) 0.7650(3) 0.0277(4) Uani 1 1 d . . . . .
H21A H 1.425418 0.114049 0.666650 0.041 Uiso 1 1 calc R U . . .
H21B H 1.530634 0.093248 0.804000 0.041 Uiso 1 1 calc R U . . .
H21C H 1.473397 0.232699 0.823915 0.041 Uiso 1 1 calc R U . . .
N1 N 0.3999(2) 0.27125(18) 0.40822(18) 0.0188(3) Uani 1 1 d . . . . .
N2 N 0.2269(2) 0.41474(18) 0.47272(18) 0.0197(3) Uani 1 1 d . . . . .
N3 N 0.8505(2) 0.17758(19) 0.6043(2) 0.0235(4) Uani 1 1 d . . . . .
N4 N 1.2874(2) 0.06844(19) 0.7656(2) 0.0233(4) Uani 1 1 d . . . . .
O1 O 0.33575(19) 0.10782(16) 0.18370(16) 0.0266(3) Uani 1 1 d . . . . .
Se1 Se 0.60637(3) 0.22110(2) 0.48770(2) 0.02114(8) Uani 1 1 d . . . . .
 
loop_
 _atom_site_aniso_label
 _atom_site_aniso_U_11
 _atom_site_aniso_U_22
 _atom_site_aniso_U_33
 _atom_site_aniso_U_23
 _atom_site_aniso_U_13
 _atom_site_aniso_U_12
C1 0.0204(9) 0.0205(9) 0.0192(9) 0.0099(8) 0.0081(7) 0.0046(7)
C2 0.0186(9) 0.0214(9) 0.0192(9) 0.0106(8) 0.0081(7) 0.0042(7)
C3 0.0215(9) 0.0265(10) 0.0219(10) 0.0076(8) 0.0100(8) 0.0054(8)
C4 0.0300(11) 0.0299(11) 0.0201(10) 0.0052(9) 0.0119(9) 0.0033(9)
C5 0.0246(10) 0.0311(11) 0.0191(10) 0.0101(9) 0.0042(8) 0.0003(8)
C6 0.0210(9) 0.0252(10) 0.0236(10) 0.0128(8) 0.0062(8) 0.0047(8)
C7 0.0204(9) 0.0185(9) 0.0195(9) 0.0095(7) 0.0096(7) 0.0057(7)
C8 0.0211(9) 0.0195(9) 0.0190(9) 0.0086(8) 0.0073(7) 0.0069(7)
C9 0.0172(9) 0.0195(9) 0.0206(9) 0.0099(8) 0.0067(7) 0.0056(7)
C10 0.0187(9) 0.0193(9) 0.0212(9) 0.0100(8) 0.0083(7) 0.0047(7)
C11 0.0221(10) 0.0226(10) 0.0269(10) 0.0120(8) 0.0117(8) 0.0097(8)
C12 0.0187(9) 0.0288(11) 0.0301(11) 0.0164(9) 0.0096(8) 0.0101(8)
C13 0.0205(10) 0.0302(11) 0.0218(10) 0.0124(8) 0.0051(8) 0.0061(8)
C14 0.0227(10) 0.0234(10) 0.0215(10) 0.0094(8) 0.0085(8) 0.0070(8)
C15 0.0206(9) 0.0241(10) 0.0238(10) 0.0098(8) 0.0098(8) 0.0062(8)
C16 0.0224(10) 0.0218(9) 0.0230(9) 0.0120(8) 0.0112(8) 0.0069(8)
C17 0.0210(9) 0.0188(9) 0.0171(9) 0.0062(7) 0.0082(7) 0.0058(7)
C18 0.0236(10) 0.0218(10) 0.0271(10) 0.0122(8) 0.0119(8) 0.0048(8)
C19 0.0292(11) 0.0227(10) 0.0292(11) 0.0146(9) 0.0127(9) 0.0103(8)
C20 0.0251(10) 0.0359(12) 0.0334(11) 0.0216(10) 0.0139(9) 0.0158(9)
C21 0.0174(9) 0.0311(11) 0.0347(12) 0.0130(9) 0.0123(8) 0.0065(8)
N1 0.0174(8) 0.0212(8) 0.0182(8) 0.0088(7) 0.0065(6) 0.0082(6)
N2 0.0197(8) 0.0208(8) 0.0200(8) 0.0085(7) 0.0092(6) 0.0075(6)
N3 0.0214(8) 0.0244(9) 0.0255(9) 0.0115(7) 0.0083(7) 0.0102(7)
N4 0.0191(8) 0.0285(9) 0.0261(9) 0.0146(7) 0.0102(7) 0.0076(7)
O1 0.0251(7) 0.0280(8) 0.0211(7) 0.0054(6) 0.0068(6) 0.0138(6)
Se1 0.02033(12) 0.02256(12) 0.02006(12) 0.00915(9) 0.00675(8) 0.00873(8)
 
_geom_special_details
;
 All esds (except the esd in the dihedral angle between two l.s. planes)
 are estimated using the full covariance matrix.  The cell esds are taken
 into account individually in the estimation of esds in distances, angles
 and torsion angles; correlations between esds in cell parameters are only
 used when they are defined by crystal symmetry.  An approximate (isotropic)
 treatment of cell esds is used for estimating esds involving l.s. planes.
;
 
loop_
 _geom_bond_atom_site_label_1
 _geom_bond_atom_site_label_2
 _geom_bond_distance
 _geom_bond_site_symmetry_2
 _geom_bond_publ_flag
C1 C6 1.398(3) . ?
C1 C2 1.403(3) . ?
C1 Se1 1.919(2) . ?
C2 C3 1.395(3) . ?
C2 C7 1.467(3) . ?
C3 C4 1.389(3) . ?
C3 H3 0.9500 . ?
C4 C5 1.394(3) . ?
C4 H4 0.9500 . ?
C5 C6 1.383(3) . ?
C5 H5 0.9500 . ?
C6 H6 0.9500 . ?
C7 N2 1.301(3) . ?
C7 N1 1.369(3) . ?
C8 O1 1.233(3) . ?
C8 N1 1.373(3) . ?
C8 C9 1.460(3) . ?
C9 C14 1.405(3) . ?
C9 C10 1.411(3) . ?
C10 N2 1.388(3) . ?
C10 C11 1.411(3) . ?
C11 C12 1.379(3) . ?
C11 H11 0.9500 . ?
C12 C13 1.403(3) . ?
C12 H12 0.9500 . ?
C13 C14 1.371(3) . ?
C13 H13 0.9500 . ?
C14 H14 0.9500 . ?
C15 N3 1.343(3) . ?
C15 C16 1.374(3) . ?
C15 H15 0.9500 . ?
C16 C17 1.418(3) . ?
C16 H16 0.9500 . ?
C17 N4 1.347(3) . ?
C17 C18 1.416(3) . ?
C18 C19 1.374(3) . ?
C18 H18 0.9500 . ?
C19 N3 1.339(3) . ?
C19 H19 0.9500 . ?
C20 N4 1.453(3) . ?
C20 H20A 0.9800 . ?
C20 H20B 0.9800 . ?
C20 H20C 0.9800 . ?
C21 N4 1.456(3) . ?
C21 H21A 0.9800 . ?
C21 H21B 0.9800 . ?
C21 H21C 0.9800 . ?
N1 Se1 1.9724(16) . ?
N3 Se1 2.3115(18) . ?
 
loop_
 _geom_angle_atom_site_label_1
 _geom_angle_atom_site_label_2
 _geom_angle_atom_site_label_3
 _geom_angle
 _geom_angle_site_symmetry_1
 _geom_angle_site_symmetry_3
 _geom_angle_publ_flag
C6 C1 C2 119.47(19) . . ?
C6 C1 Se1 126.50(16) . . ?
C2 C1 Se1 114.03(14) . . ?
C3 C2 C1 120.66(19) . . ?
C3 C2 C7 123.19(19) . . ?
C1 C2 C7 116.15(18) . . ?
C4 C3 C2 119.4(2) . . ?
C4 C3 H3 120.3 . . ?
C2 C3 H3 120.3 . . ?
C3 C4 C5 119.8(2) . . ?
C3 C4 H4 120.1 . . ?
C5 C4 H4 120.1 . . ?
C6 C5 C4 121.3(2) . . ?
C6 C5 H5 119.4 . . ?
C4 C5 H5 119.4 . . ?
C5 C6 C1 119.4(2) . . ?
C5 C6 H6 120.3 . . ?
C1 C6 H6 120.3 . . ?
N2 C7 N1 125.88(18) . . ?
N2 C7 C2 123.61(18) . . ?
N1 C7 C2 110.49(17) . . ?
O1 C8 N1 120.94(18) . . ?
O1 C8 C9 125.59(19) . . ?
N1 C8 C9 113.45(17) . . ?
C14 C9 C10 120.50(18) . . ?
C14 C9 C8 120.06(18) . . ?
C10 C9 C8 119.44(18) . . ?
N2 C10 C11 118.96(18) . . ?
N2 C10 C9 122.77(18) . . ?
C11 C10 C9 118.26(18) . . ?
C12 C11 C10 120.25(19) . . ?
C12 C11 H11 119.9 . . ?
C10 C11 H11 119.9 . . ?
C11 C12 C13 120.95(19) . . ?
C11 C12 H12 119.5 . . ?
C13 C12 H12 119.5 . . ?
C14 C13 C12 119.77(19) . . ?
C14 C13 H13 120.1 . . ?
C12 C13 H13 120.1 . . ?
C13 C14 C9 120.2(2) . . ?
C13 C14 H14 119.9 . . ?
C9 C14 H14 119.9 . . ?
N3 C15 C16 123.64(19) . . ?
N3 C15 H15 118.2 . . ?
C16 C15 H15 118.2 . . ?
C15 C16 C17 119.87(19) . . ?
C15 C16 H16 120.1 . . ?
C17 C16 H16 120.1 . . ?
N4 C17 C18 122.18(19) . . ?
N4 C17 C16 122.16(19) . . ?
C18 C17 C16 115.65(19) . . ?
C19 C18 C17 119.88(19) . . ?
C19 C18 H18 120.1 . . ?
C17 C18 H18 120.1 . . ?
N3 C19 C18 123.8(2) . . ?
N3 C19 H19 118.1 . . ?
C18 C19 H19 118.1 . . ?
N4 C20 H20A 109.5 . . ?
N4 C20 H20B 109.5 . . ?
H20A C20 H20B 109.5 . . ?
N4 C20 H20C 109.5 . . ?
H20A C20 H20C 109.5 . . ?
H20B C20 H20C 109.5 . . ?
N4 C21 H21A 109.5 . . ?
N4 C21 H21B 109.5 . . ?
H21A C21 H21B 109.5 . . ?
N4 C21 H21C 109.5 . . ?
H21A C21 H21C 109.5 . . ?
H21B C21 H21C 109.5 . . ?
C7 N1 C8 123.05(17) . . ?
C7 N1 Se1 116.83(13) . . ?
C8 N1 Se1 120.10(13) . . ?
C7 N2 C10 115.30(17) . . ?
C19 N3 C15 117.14(18) . . ?
C19 N3 Se1 119.71(14) . . ?
C15 N3 Se1 122.59(14) . . ?
C17 N4 C20 121.10(18) . . ?
C17 N4 C21 120.24(18) . . ?
C20 N4 C21 118.66(18) . . ?
C1 Se1 N1 82.45(8) . . ?
C1 Se1 N3 91.62(8) . . ?
N1 Se1 N3 174.01(7) . . ?
 
loop_
 _geom_torsion_atom_site_label_1
 _geom_torsion_atom_site_label_2
 _geom_torsion_atom_site_label_3
 _geom_torsion_atom_site_label_4
 _geom_torsion
 _geom_torsion_site_symmetry_1
 _geom_torsion_site_symmetry_2
 _geom_torsion_site_symmetry_3
 _geom_torsion_site_symmetry_4
 _geom_torsion_publ_flag
C6 C1 C2 C3 1.3(3) . . . . ?
Se1 C1 C2 C3 -178.71(16) . . . . ?
C6 C1 C2 C7 -178.88(18) . . . . ?
Se1 C1 C2 C7 1.1(2) . . . . ?
C1 C2 C3 C4 -1.6(3) . . . . ?
C7 C2 C3 C4 178.6(2) . . . . ?
C2 C3 C4 C5 0.6(3) . . . . ?
C3 C4 C5 C6 0.8(4) . . . . ?
C4 C5 C6 C1 -1.1(3) . . . . ?
C2 C1 C6 C5 0.0(3) . . . . ?
Se1 C1 C6 C5 -179.96(16) . . . . ?
C3 C2 C7 N2 -4.1(3) . . . . ?
C1 C2 C7 N2 176.11(19) . . . . ?
C3 C2 C7 N1 177.45(19) . . . . ?
C1 C2 C7 N1 -2.4(2) . . . . ?
O1 C8 C9 C14 -4.2(3) . . . . ?
N1 C8 C9 C14 177.27(18) . . . . ?
O1 C8 C9 C10 175.4(2) . . . . ?
N1 C8 C9 C10 -3.1(3) . . . . ?
C14 C9 C10 N2 -177.98(19) . . . . ?
C8 C9 C10 N2 2.4(3) . . . . ?
C14 C9 C10 C11 1.8(3) . . . . ?
C8 C9 C10 C11 -177.79(18) . . . . ?
N2 C10 C11 C12 177.66(19) . . . . ?
C9 C10 C11 C12 -2.2(3) . . . . ?
C10 C11 C12 C13 0.8(3) . . . . ?
C11 C12 C13 C14 0.9(3) . . . . ?
C12 C13 C14 C9 -1.2(3) . . . . ?
C10 C9 C14 C13 -0.2(3) . . . . ?
C8 C9 C14 C13 179.44(19) . . . . ?
N3 C15 C16 C17 -0.2(3) . . . . ?
C15 C16 C17 N4 -179.85(19) . . . . ?
C15 C16 C17 C18 0.0(3) . . . . ?
N4 C17 C18 C19 179.5(2) . . . . ?
C16 C17 C18 C19 -0.4(3) . . . . ?
C17 C18 C19 N3 1.0(3) . . . . ?
N2 C7 N1 C8 2.1(3) . . . . ?
C2 C7 N1 C8 -179.46(18) . . . . ?
N2 C7 N1 Se1 -175.88(16) . . . . ?
C2 C7 N1 Se1 2.6(2) . . . . ?
O1 C8 N1 C7 -177.52(19) . . . . ?
C9 C8 N1 C7 1.1(3) . . . . ?
O1 C8 N1 Se1 0.4(3) . . . . ?
C9 C8 N1 Se1 179.02(13) . . . . ?
N1 C7 N2 C10 -2.9(3) . . . . ?
C2 C7 N2 C10 178.82(18) . . . . ?
C11 C10 N2 C7 -179.18(18) . . . . ?
C9 C10 N2 C7 0.6(3) . . . . ?
C18 C19 N3 C15 -1.1(3) . . . . ?
C18 C19 N3 Se1 -172.74(17) . . . . ?
C16 C15 N3 C19 0.6(3) . . . . ?
C16 C15 N3 Se1 172.06(16) . . . . ?
C18 C17 N4 C20 179.8(2) . . . . ?
C16 C17 N4 C20 -0.3(3) . . . . ?
C18 C17 N4 C21 -0.5(3) . . . . ?
C16 C17 N4 C21 179.41(19) . . . . ?
 
loop_
 _geom_hbond_atom_site_label_D 
 _geom_hbond_atom_site_label_H 
 _geom_hbond_atom_site_label_A 
 _geom_hbond_distance_DH 
 _geom_hbond_distance_HA 
 _geom_hbond_distance_DA 
 _geom_hbond_angle_DHA 
 _geom_hbond_site_symmetry_A 
C6 H6 N3  0.95 2.46 3.056(3) 120.5 .
C20 H20A O1  0.98 2.61 3.543(3) 160.2 1_656
C20 H20B O1  0.98 2.56 3.505(3) 161.3 2_756
C21 H21B O1  0.98 2.61 3.515(3) 154.4 2_756
C6 H6 N3  0.95 2.46 3.056(3) 120.5 .
C20 H20A O1  0.98 2.61 3.543(3) 160.2 1_656
C20 H20B O1  0.98 2.56 3.505(3) 161.3 2_756
C21 H21B O1  0.98 2.61 3.515(3) 154.4 2_756
 
_refine_diff_density_max    0.492
_refine_diff_density_min   -0.425
_refine_diff_density_rms    0.069

_shelx_res_file
;
TITL shelxt_a.res in P-1
    shelx.res
    created by SHELXL-2016/6 at 14:15:07 on 18-Apr-2018
CELL  1.54184   8.8117  10.7693  10.9876  111.669  109.267   96.568
ZERR     2.00   0.0005   0.0006   0.0008    0.006    0.006    0.005
LATT   1
SFAC  C    H    N    O    SE
UNIT  42 36 8 2 2
MERG   2
HTAB C6 N3
EQIV $1 x+1, y, z+1
HTAB C20 O1_$1
EQIV $2 -x+2, -y, -z+1
HTAB C20 O1_$2
HTAB C21 O1_$2
HTAB C6 N3
HTAB C20 O1_$1
HTAB C20 O1_$2
HTAB C21 O1_$2
FMAP   2
PLAN   20
ACTA
BOND   $H
CONF
L.S.  10
TEMP  -143.00
WGHT    0.035800    0.542500
FVAR       6.08659
C1    1    0.624678    0.365478    0.663116    11.00000    0.02036    0.02048 =
         0.01916    0.00992    0.00812    0.00462
C2    1    0.492873    0.428171    0.647817    11.00000    0.01861    0.02144 =
         0.01919    0.01059    0.00813    0.00423
C3    1    0.490536    0.536776    0.765482    11.00000    0.02154    0.02651 =
         0.02194    0.00757    0.01003    0.00540
AFIX  43
H3    2    0.402381    0.580392    0.754025    11.00000   -1.20000
AFIX   0
C4    1    0.618168    0.580579    0.899492    11.00000    0.02997    0.02993 =
         0.02011    0.00518    0.01189    0.00331
AFIX  43
H4    2    0.617255    0.653885    0.980477    11.00000   -1.20000
AFIX   0
C5    1    0.747637    0.516602    0.914761    11.00000    0.02456    0.03115 =
         0.01913    0.01007    0.00416    0.00031
AFIX  43
H5    2    0.833866    0.546275    1.006916    11.00000   -1.20000
AFIX   0
C6    1    0.752989    0.410741    0.798322    11.00000    0.02101    0.02519 =
         0.02357    0.01278    0.00623    0.00473
AFIX  43
H6    2    0.843023    0.369202    0.810146    11.00000   -1.20000
AFIX   0
C7    1    0.361599    0.373068    0.503091    11.00000    0.02039    0.01852 =
         0.01951    0.00947    0.00956    0.00571
C8    1    0.299404    0.202141    0.264657    11.00000    0.02113    0.01950 =
         0.01904    0.00860    0.00728    0.00693
C9    1    0.150175    0.249727    0.223105    11.00000    0.01721    0.01945 =
         0.02064    0.00991    0.00671    0.00564
C10   1    0.118507    0.352319    0.329239    11.00000    0.01866    0.01930 =
         0.02123    0.00996    0.00830    0.00471
C11   1   -0.029571    0.392865    0.286791    11.00000    0.02207    0.02260 =
         0.02691    0.01200    0.01165    0.00965
AFIX  43
H11   2   -0.055609    0.459395    0.356622    11.00000   -1.20000
AFIX   0
C12   1   -0.136711    0.336282    0.144277    11.00000    0.01865    0.02877 =
         0.03008    0.01639    0.00960    0.01013
AFIX  43
H12   2   -0.235325    0.365291    0.116781    11.00000   -1.20000
AFIX   0
C13   1   -0.102143    0.236510    0.039350    11.00000    0.02049    0.03017 =
         0.02179    0.01238    0.00510    0.00614
AFIX  43
H13   2   -0.176193    0.199275   -0.058578    11.00000   -1.20000
AFIX   0
C14   1    0.038867    0.192936    0.078628    11.00000    0.02268    0.02338 =
         0.02145    0.00944    0.00850    0.00702
AFIX  43
H14   2    0.061402    0.124112    0.007928    11.00000   -1.20000
AFIX   0
C15   1    0.852509    0.082637    0.656408    11.00000    0.02055    0.02406 =
         0.02383    0.00981    0.00985    0.00622
AFIX  43
H15   2    0.751226    0.040367    0.655584    11.00000   -1.20000
AFIX   0
C16   1    0.992918    0.043270    0.710880    11.00000    0.02237    0.02178 =
         0.02304    0.01199    0.01119    0.00690
AFIX  43
H16   2    0.987197   -0.024319    0.746631    11.00000   -1.20000
AFIX   0
C17   1    1.146367    0.103706    0.713636    11.00000    0.02099    0.01883 =
         0.01713    0.00617    0.00825    0.00581
C18   1    1.141662    0.203339    0.657988    11.00000    0.02358    0.02181 =
         0.02706    0.01217    0.01191    0.00482
AFIX  43
H18   2    1.240288    0.248374    0.657173    11.00000   -1.20000
AFIX   0
C19   1    0.994243    0.234765    0.605184    11.00000    0.02922    0.02269 =
         0.02917    0.01459    0.01271    0.01026
AFIX  43
H19   2    0.994300    0.300915    0.567120    11.00000   -1.20000
AFIX   0
C20   1    1.288972   -0.033796    0.822541    11.00000    0.02513    0.03587 =
         0.03341    0.02164    0.01393    0.01585
AFIX 137
H20A  2    1.272031    0.003825    0.911546    11.00000   -1.50000
H20B  2    1.396733   -0.056013    0.841899    11.00000   -1.50000
H20C  2    1.199232   -0.118166    0.752597    11.00000   -1.50000
AFIX   0
C21   1    1.441837    0.132334    0.764989    11.00000    0.01744    0.03112 =
         0.03468    0.01301    0.01226    0.00652
AFIX 137
H21A  2    1.425418    0.114049    0.666650    11.00000   -1.50000
H21B  2    1.530634    0.093248    0.804000    11.00000   -1.50000
H21C  2    1.473397    0.232699    0.823915    11.00000   -1.50000
AFIX   0
N1    3    0.399854    0.271255    0.408218    11.00000    0.01743    0.02125 =
         0.01824    0.00879    0.00654    0.00822
N2    3    0.226897    0.414744    0.472720    11.00000    0.01970    0.02077 =
         0.02002    0.00848    0.00925    0.00749
N3    3    0.850489    0.177579    0.604250    11.00000    0.02139    0.02437 =
         0.02547    0.01150    0.00834    0.01019
N4    3    1.287374    0.068443    0.765588    11.00000    0.01909    0.02848 =
         0.02614    0.01455    0.01023    0.00763
O1    4    0.335751    0.107818    0.183697    11.00000    0.02513    0.02801 =
         0.02114    0.00545    0.00675    0.01376
SE1   5    0.606369    0.221104    0.487704    11.00000    0.02033    0.02256 =
         0.02006    0.00915    0.00675    0.00873
HKLF    4




REM  shelxt_a.res in P-1
REM R1 =  0.0290 for    3346 Fo > 4sig(Fo)  and  0.0325 for all    3635 data
REM    246 parameters refined using      0 restraints

END

WGHT      0.0356      0.5460

REM Highest difference peak  0.492,  deepest hole -0.425,  1-sigma level  0.069
Q1    1   0.6437  0.2731  0.5946  11.00000  0.05    0.49
Q2    1   0.1016  0.2188  0.1531  11.00000  0.05    0.39
Q3    1   0.4287  0.4005  0.5891  11.00000  0.05    0.38
Q4    1   0.2122  0.2286  0.2360  11.00000  0.05    0.38
Q5    1   0.4690  0.2572  0.4417  11.00000  0.05    0.36
Q6    1  -0.0731  0.3766  0.2159  11.00000  0.05    0.34
Q7    1   0.4975  0.4829  0.7054  11.00000  0.05    0.31
Q8    1   0.5647  0.1825  0.3812  11.00000  0.05    0.31
Q9    1   1.1384  0.1419  0.6828  11.00000  0.05    0.31
Q10   1   1.0655  0.0653  0.7008  11.00000  0.05    0.30
Q11   1   0.1687  0.3768  0.4038  11.00000  0.05    0.30
Q12   1   0.3506  0.2407  0.3491  11.00000  0.05    0.30
Q13   1  -0.1179  0.2817  0.0789  11.00000  0.05    0.29
Q14   1   0.5345  0.5366  0.8335  11.00000  0.05    0.29
Q15   1   1.0662  0.2019  0.6176  11.00000  0.05    0.29
Q16   1   0.5518  0.3939  0.6611  11.00000  0.05    0.28
Q17   1   0.9340  0.0760  0.6974  11.00000  0.05    0.27
Q18   1   1.3512  0.1001  0.7759  11.00000  0.05    0.27
Q19   1   0.7404  0.4556  0.8543  11.00000  0.05    0.25
Q20   1   1.2797  0.0216  0.7879  11.00000  0.05    0.25
;
_shelx_res_checksum    5636

_shelx_hkl_file
;
 -11   0   4 2271.76 162.563  17
 -11   0   5 6.41043 54.6572  17
 -11   0   6 2902.24 189.861  17
 -11   1   3 2776.98 179.168  17
 -11   1   4 8895.09 340.555  17
 -11   1   5 21141.6 526.874  17
 -11   1   6 15498.3 432.536  17
 -11   2   3 167.385 60.0326  17
 -11   2   4 206.660 73.5186  17
 -11   2   5 893.989 114.922  17
 -10  -4   5 7680.56 315.271  19
 -10  -4   6 3274.57 222.337  19
 -10  -4   7 3446.00 226.309  19
 -10  -4   8 9650.31 346.307  19
 -10  -3   3 77.6492 65.1128  19
 -10  -3   4 383.339 97.4509  19
 -10  -3   5 1191.72 160.970  19
 -10  -3   6 166.960 76.9520  17
 -10  -3   6-82.8150 85.6475  19
 -10  -3   7 1862.48 192.828  19
 -10  -3   7 1752.31 163.777  18
 -10  -3   8 321.558 92.8978  19
 -10  -3   8 193.943 74.2837  18
 -10  -3   9 3003.58 189.047  18
 -10  -3   9 2764.56 184.644  19
 -10  -2   2 20091.5 477.915  17
 -10  -2   3 6728.91 335.196  17
 -10  -2   3 6492.85 324.846  19
 -10  -2   4 4440.74 300.688  17
 -10  -2   4 4347.14 289.164  19
 -10  -2   5 4837.77 320.692  19
 -10  -2   5 5275.33 310.278  18
 -10  -2   5 4158.38 299.437  17
 -10  -2   6 4682.89 312.979  19
 -10  -2   6 4210.37 301.036  18
 -10  -2   7 2726.05 233.118  19
 -10  -2   7 2887.97 251.755  18
 -10  -2   8 3268.61 256.387  18
 -10  -2   8 3275.36 235.603  19
 -10  -2   9 33060.6 691.643  18
 -10  -1   1 8045.77 330.459  17
 -10  -1   2 787.056 109.129  19
 -10  -1   2 911.298 148.746  17
 -10  -1   3 132.520 83.1841  19
 -10  -1   3 4.33539 110.310  17
 -10  -1   4 98.6167 107.716  17
 -10  -1   4-131.161 102.980  19
 -10  -1   5 2354.78 252.816  18
 -10  -1   5 1869.19 202.595  19
 -10  -1   6 6959.51 412.742  18
 -10  -1   6 6130.64 349.082  19
 -10  -1   7 11256.2 510.276  18
 -10  -1   7 9736.38 414.802  19
 -10  -1   8 149.557 109.857  18
 -10  -1   8-12.1498 56.9113  19
 -10  -1   9 113.607 87.8293  18
 -10   0   0 3631.46 220.997  17
 -10   0   1 6112.78 342.709  17
 -10   0   2 8420.11 442.518  17
 -10   0   3 4525.90 356.054  17
 -10   0   4 2883.89 285.160  18
 -10   0   5 1802.56 242.925  18
 -10   0   6 4442.84 356.660  18
 -10   0   7 294.821 128.991  18
 -10   0   8 1396.83 189.576  18
 -10   0   9 2838.75 210.240  18
 -10   1   0 3255.37 243.831  17
 -10   1   1 2514.59 249.621  17
 -10   1   2 18175.1 675.725  17
 -10   1   3 13274.4 608.762  17
 -10   1   4 10365.4 539.110  18
 -10   1   5 17428.1 690.830  18
 -10   1   6 9128.25 492.437  18
 -10   1   7 11102.2 503.765  18
 -10   1   8 3044.94 241.602  18
 -10   2  -1 9993.39 349.760  17
 -10   2   0 1715.40 189.677  17
 -10   2   1 10606.7 492.975  17
 -10   2   2 6035.86 400.560  17
 -10   2   3 64.3003 133.283  17
 -10   2   4 9454.53 517.130  18
 -10   2   5 3450.54 316.071  18
 -10   2   6 90.1596 102.338  18
 -10   2   7 738.382 141.561  18
 -10   2   8 518.758 90.1456  18
 -10   3  -1 5575.32 273.456  10
 -10   3  -1 5344.93 255.175  17
 -10   3   0 2143.67 204.646  17
 -10   3   1 4910.70 328.204  17
 -10   3   2 17592.2 644.063  17
 -10   3   3 14429.7 597.958  17
 -10   3   4 12158.8 553.006  18
 -10   3   5 22277.8 708.526  18
 -10   3   6 10154.1 437.386  18
 -10   3   7 9164.21 338.360  18
 -10   4   0 10997.2 397.697  17
 -10   4   1-121.991 87.4835  17
 -10   4   2 542.196 125.225  17
 -10   4   3 4298.61 296.232  17
 -10   4   4 189.223 104.182  17
  -9  -6   4 3592.47 203.164  19
  -9  -6   5 2119.49 179.025  13
  -9  -6   5 2382.41 195.624  19
  -9  -6   6 400.694 110.461  13
  -9  -6   6 578.480 117.229  19
  -9  -6   7 3471.45 248.300  19
  -9  -6   8 3605.29 244.277  19
  -9  -6   9 997.469 127.428  19
  -9  -5   3 6689.57 338.827  19
  -9  -5   4 1857.73 194.455  13
  -9  -5   4 2108.00 224.972  19
  -9  -5   5 8002.49 435.208  19
  -9  -5   5 7746.47 415.092  13
  -9  -5   6 2794.70 270.350  19
  -9  -5   7 4802.46 346.181  19
  -9  -5   8 1235.89 185.383  19
  -9  -4   1 6329.18 293.996  19
  -9  -4   2 1493.73 189.431  19
  -9  -4   3 9364.14 481.203  19
  -9  -4   3 9245.51 398.789  13
  -9  -4   4 12893.5 547.611  13
  -9  -4   4 12987.8 599.444  19
  -9  -4   5 4885.16 388.343  19
  -9  -4   6 6999.78 461.227  19
  -9  -4   7 1863.04 215.396  18
  -9  -4   8 6537.80 380.658  18
  -9  -4   9 6911.70 374.302  18
  -9  -4  10 11757.7 437.129  18
  -9  -4  11 5926.69 255.185  18
  -9  -3   0 8326.39 335.665  19
  -9  -3   1 12.9723 94.1727  19
  -9  -3   2 2663.27 276.747  19
  -9  -3   2 3088.52 254.855  17
  -9  -3   3 3574.07 339.978  19
  -9  -3   3 2839.14 267.318  17
  -9  -3   4 1894.32 277.434  19
  -9  -3   4 2025.20 220.307  18
  -9  -3   4 2369.49 267.115  17
  -9  -3   5 7679.30 441.567  18
  -9  -3   5 7715.59 507.465  19
  -9  -3   6 3263.27 316.941  18
  -9  -3   7 436.010 163.979  18
  -9  -3   8 2179.22 264.094  18
  -9  -3   9 4432.36 338.839  18
  -9  -3  10 275.064 117.370  18
  -9  -3  11 1136.47 133.409  18
  -9  -2   0 3402.35 261.026  19
  -9  -2   0 3260.43 242.080  17
  -9  -2   1 14211.5 597.860  19
  -9  -2   1 15063.3 591.973  17
  -9  -2   2 28051.6 906.106  19
  -9  -2   2 30069.7 911.232  17
  -9  -2   3 13114.8 651.816  19
  -9  -2   3 13679.2 653.994  17
  -9  -2   3 14463.3 606.141  18
  -9  -2   4 10582.7 595.964  19
  -9  -2   4 11591.9 584.674  18
  -9  -2   5 20540.9 800.883  18
  -9  -2   5 23328.3 888.591  19
  -9  -2   6 9585.84 565.109  18
  -9  -2   7 21838.7 838.192  18
  -9  -2   8 26834.6 899.463  18
  -9  -2   9 19915.5 732.036  18
  -9  -2  10 10774.1 484.449  18
  -9  -2  11 8567.25 345.656  18
  -9  -1  -1 1113.19 157.457  17
  -9  -1  -1 910.578 123.808  19
  -9  -1   0 640.733 143.556  19
  -9  -1   0 414.565 137.425  17
  -9  -1   1 3116.26 296.443  19
  -9  -1   1 3146.77 328.020  17
  -9  -1   2 11527.9 625.844  17
  -9  -1   2 11902.8 605.619  19
  -9  -1   3 1601.67 252.820  19
  -9  -1   3 1336.29 234.133  18
  -9  -1   4 1421.33 258.475  19
  -9  -1   4 841.149 216.974  18
  -9  -1   5-282.353 188.786  18
  -9  -1   6 847.819 226.096  18
  -9  -1   7 10916.7 624.537  18
  -9  -1   8 2442.21 313.943  18
  -9  -1   9 368.371 161.426  18
  -9  -1  10 1643.43 204.357  18
  -9  -1  11 2138.02 163.081  18
  -9   0  -2 7822.65 352.558  17
  -9   0  -1 6742.32 405.290  17
  -9   0  -1 6069.13 313.197  19
  -9   0   0 19087.2 748.803  17
  -9   0   0 18690.1 650.222  19
  -9   0   1 19271.7 720.895  19
  -9   0   1 19462.4 809.226  17
  -9   0   2 6014.14 452.831  18
  -9   0   2 5737.06 474.455  17
  -9   0   2 6262.42 443.819  19
  -9   0   3 21077.7 862.124  18
  -9   0   3 20858.1 809.652  19
  -9   0   4 12383.3 627.303  19
  -9   0   4 11516.6 655.767  18
  -9   0   5 16441.7 788.923  18
  -9   0   6 152.564 175.121  18
  -9   0   7 24451.7 928.041  18
  -9   0   8 40243.5 1106.35  18
  -9   0   9 810.616 173.848  18
  -9   0  10 3795.96 263.774  18
  -9   1  -3 101.346 53.7206  17
  -9   1  -2 735.652 150.584  17
  -9   1  -2 590.129 108.305  10
  -9   1  -1-15.0398 133.882  17
  -9   1   0 115.476 162.644  17
  -9   1   1 2085.54 314.883  17
  -9   1   2 202.664 184.443  18
  -9   1   3 353.422 168.658  18
  -9   1   4 3148.68 385.950  18
  -9   1   5 947.201 260.408  18
  -9   1   6 570.329 203.889  18
  -9   1   7 5823.07 451.825  18
  -9   1   8 746.257 177.433  18
  -9   1   9 5955.32 357.892  18
  -9   2  -3 12207.6 426.147  17
  -9   2  -3 11823.5 385.121  10
  -9   2  -2 10873.4 471.619  10
  -9   2  -2 10790.2 494.099  17
  -9   2  -1 16437.8 684.857  17
  -9   2   0 14278.6 690.805  17
  -9   2   1 8584.54 569.600  17
  -9   2   2 6062.23 492.753  18
  -9   2   3 19144.1 856.251  18
  -9   2   4 21490.3 899.427  18
  -9   2   5 25882.7 967.160  18
  -9   2   6 2945.59 346.722  18
  -9   2   7 158.829 126.790  18
  -9   2   8 134.260 109.915  18
  -9   3  -3 3695.50 248.867  17
  -9   3  -3 3867.52 256.959  10
  -9   3  -2 1429.47 204.969  17
  -9   3  -1 1023.89 198.182  17
  -9   3   0 536.734 176.688  17
  -9   3   1 10286.0 601.433  17
  -9   3   2 15828.3 762.156  18
  -9   3   3 16656.3 779.848  18
  -9   3   4 10236.7 612.321  18
  -9   3   5 15392.4 714.249  18
  -9   3   6 2220.53 259.576  18
  -9   3   7 642.239 145.173  18
  -9   4  -3 14630.0 512.015  10
  -9   4  -3 13712.0 437.366  17
  -9   4  -2 11116.9 476.997  17
  -9   4  -1 13817.0 596.384  17
  -9   4   0 24703.8 836.005  17
  -9   4   1 8001.38 497.887  17
  -9   4   3 29315.8 980.241  18
  -9   4   4 4634.43 384.614  18
  -9   4   5 7659.26 453.444  18
  -9   4   6 16513.7 579.035  18
  -9   5  -4 41.2069 51.9441  10
  -9   5  -3 140.913 94.8904  10
  -9   5  -2 983.902 133.130  17
  -9   5  -1 715.438 150.851  17
  -9   5   0 5743.71 368.736  17
  -9   6  -3 12173.8 437.897  10
  -9   7  -3 1025.08 119.396  10
  -8  -8   6 595.255 114.459  13
  -8  -8   7 166.567 80.5096  13
  -8  -8   8 1418.07 155.541  13
  -8  -7   3 2470.50 192.702  13
  -8  -7   4 10870.0 462.426  13
  -8  -7   4 10510.5 413.367  19
  -8  -7   5 11226.0 516.189  13
  -8  -7   5 11076.5 465.747  19
  -8  -7   6 11762.7 498.724  19
  -8  -7   7 10506.6 472.933  19
  -8  -7   8 10181.6 453.755  19
  -8  -7   9 3645.09 258.725  19
  -8  -7  10 98.2765 61.7264  19
  -8  -6   2 1303.89 167.946  19
  -8  -6   2 947.310 140.228  13
  -8  -6   3 960.359 173.430  13
  -8  -6   3 920.237 166.057  19
  -8  -6   4-51.3613 119.493  19
  -8  -6   4-22.9414 123.940  13
  -8  -6   5 369.850 152.836  19
  -8  -6   6 151.036 133.411  19
  -8  -6   6 105.252 165.820   7
  -8  -6   7 5638.32 439.662   7
  -8  -6   8 68.1810 121.393   9
  -8  -6   9 354.321 151.307   9
  -8  -6  10 1691.59 211.413   9
  -8  -6  11 1375.39 164.331   9
  -8  -5   0 4704.33 264.368  19
  -8  -5   1 16449.7 596.293  19
  -8  -5   1 15595.9 514.917  13
  -8  -5   2 25255.1 832.571  19
  -8  -5   2 25451.2 801.376  13
  -8  -5   3 8727.66 529.770  13
  -8  -5   3 8446.94 523.844  19
  -8  -5   4 8883.39 562.380  19
  -8  -5   5 5576.14 513.442   7
  -8  -5   5 4816.76 426.942  19
  -8  -5   6 40797.3 1279.92   7
  -8  -5   7 33357.4 900.871  18
  -8  -5   7 33847.2 1042.65   9
  -8  -5   8 7275.92 443.539  18
  -8  -5   8 7187.76 497.810   9
  -8  -5   9 10207.7 565.216   9
  -8  -5   9 10152.8 506.474  18
  -8  -5  10 6267.56 416.346   9
  -8  -5  10 5625.72 358.178  18
  -8  -5  11 289.191 116.435   9
  -8  -5  11 446.827 117.478  18
  -8  -5  12 2159.05 156.090  18
  -8  -4  -1 150.417 78.3954  19
  -8  -4   0 107.908 121.658  19
  -8  -4   1 15434.9 608.836  13
  -8  -4   1 14904.8 670.754  19
  -8  -4   2 748.639 214.733  19
  -8  -4   2 926.577 201.697  13
  -8  -4   2 825.341 152.918  17
  -8  -4   3 235.058 126.106  17
  -8  -4   3 710.422 217.291  19
  -8  -4   4 43.3133 161.567  19
  -8  -4   4 115.383 86.2723  17
  -8  -4   5-420.615 126.693  18
  -8  -4   5 219.553 230.200   7
  -8  -4   6 741.562 186.364  18
  -8  -4   6 943.362 234.787   7
  -8  -4   7 4124.81 409.652   9
  -8  -4   7 3666.33 359.966  18
  -8  -4   8 5069.62 463.234   9
  -8  -4   8 4736.56 406.761  18
  -8  -4   9 2703.60 310.931  18
  -8  -4   9 2430.56 332.697   9
  -8  -4  10 2997.27 317.060   9
  -8  -4  10 2381.13 269.796  18
  -8  -4  11 1211.35 179.232  18
  -8  -4  11 1382.35 193.940   9
  -8  -4  12 3247.41 214.119  18
  -8  -3  -2 9925.54 379.669  19
  -8  -3  -1 10998.9 506.332  19
  -8  -3   0 3.68830 131.290  19
  -8  -3   0 193.757 118.905  17
  -8  -3   1 1672.23 274.237  19
  -8  -3   1 1888.76 252.090  17
  -8  -3   2 19772.6 797.784  17
  -8  -3   2 18885.1 858.865  19
  -8  -3   2 19683.0 810.124  13
  -8  -3   3 18778.5 725.213  18
  -8  -3   3 18219.0 855.731  19
  -8  -3   4 11778.6 612.722  18
  -8  -3   5 12700.2 670.697  18
  -8  -3   6 4123.52 410.953  18
  -8  -3   6 4048.87 438.032   9
  -8  -3   7 3143.26 375.430  18
  -8  -3   7 3052.07 391.223   9
  -8  -3   8 18690.5 828.146  18
  -8  -3   8 16729.1 814.037   9
  -8  -3   9 5342.13 453.284   9
  -8  -3   9 4820.20 426.253  18
  -8  -3  10 4972.28 393.003   9
  -8  -3  10 4762.40 395.418  18
  -8  -3  11 1682.72 218.801  18
  -8  -3  12 1294.66 147.512  18
  -8  -2  -2 113.580 78.4340  17
  -8  -2  -2 293.118 125.686  19
  -8  -2  -1 9971.47 506.611  17
  -8  -2  -1 11049.2 570.873  19
  -8  -2   0 1447.16 259.860  19
  -8  -2   0 2046.91 278.336  17
  -8  -2   1 131.226 144.738  19
  -8  -2   1 115.210 138.132  17
  -8  -2   2 9699.49 632.423  19
  -8  -2   2 9897.58 557.770  18
  -8  -2   2 10362.1 628.553  17
  -8  -2   3 455.718 181.830  19
  -8  -2   3 417.114 136.240  18
  -8  -2   4 6348.87 495.313  18
  -8  -2   5 2919.91 359.056  18
  -8  -2   6 12767.4 718.867  18
  -8  -2   6 11723.2 715.842   9
  -8  -2   7 7903.24 599.388   9
  -8  -2   7 8523.13 600.356  18
  -8  -2   8 32274.7 1116.01  18
  -8  -2   8 32747.8 1131.92   9
  -8  -2   9 24923.1 922.851   9
  -8  -2   9 22550.6 902.831  18
  -8  -2  10 831.085 210.218  18
  -8  -2  11 9810.98 473.485  18
  -8  -2  12 1715.07 152.981  18
  -8  -1  -3 11533.2 437.118  19
  -8  -1  -3 11575.7 441.624  17
  -8  -1  -2 13782.4 590.895  19
  -8  -1  -2 13058.4 578.700  17
  -8  -1  -1 15301.3 699.278  19
  -8  -1  -1 15798.1 717.998  17
  -8  -1   0-43.7755 166.536  19
  -8  -1   0 294.442 167.448  17
  -8  -1   1 45285.7 1328.14  17
  -8  -1   1 41600.4 1268.79  19
  -8  -1   2 24410.5 941.838  18
  -8  -1   2 22556.2 941.235  19
  -8  -1   3 6054.36 496.875  19
  -8  -1   3 5192.15 463.669  18
  -8  -1   4 10858.8 673.038  18
  -8  -1   5 5819.16 513.735  18
  -8  -1   6 9717.14 642.907  18
  -8  -1   7 157.010 185.556  18
  -8  -1   7 191.527 168.549   9
  -8  -1   8 2817.09 357.072   9
  -8  -1   8 2187.43 338.038  18
  -8  -1   9 7081.51 514.647  18
  -8  -1  10 7336.49 470.371  18
  -8  -1  11 47.6541 98.9052  18
  -8   0  -4 419.754 87.7691  17
  -8   0  -3 2747.96 239.339  19
  -8   0  -3 3115.81 285.547  17
  -8   0  -2 5923.90 382.171  10
  -8   0  -2 5859.43 401.538  19
  -8   0  -2 5557.42 428.758  17
  -8   0  -1 10582.0 633.363  17
  -8   0  -1 10404.1 595.994  19
  -8   0   0 52407.2 1364.22  19
  -8   0   0 53530.4 1453.55  17
  -8   0   1 22734.3 918.251  18
  -8   0   1 22441.0 914.791  19
  -8   0   2 6251.02 495.236  19
  -8   0   2 5752.77 480.684  18
  -8   0   3-44.6498 143.337  18
  -8   0   4 8901.89 624.242  18
  -8   0   5 18545.4 885.869  18
  -8   0   6 59473.2 1575.87  18
  -8   0   7 63177.3 1595.52  18
  -8   0   8 13968.8 736.650  18
  -8   0   9 8325.26 529.704  18
  -8   0  10 26879.3 812.812  18
  -8   0  11 14275.5 447.336  18
  -8   1  -4 10102.5 393.225  10
  -8   1  -4 8914.24 414.086  17
  -8   1  -3 15746.5 665.048  17
  -8   1  -3 16441.5 621.802  10
  -8   1  -2 329.592 121.902  19
  -8   1  -2 530.355 193.639  17
  -8   1  -1 13289.8 726.689  17
  -8   1  -1 13154.2 640.313  19
  -8   1   0 33786.1 1167.80  17
  -8   1   1 13772.3 743.285  18
  -8   1   2 29178.4 1093.88  18
  -8   1   3 36387.4 1224.95  18
  -8   1   4 366.694 174.703  18
  -8   1   5 1266.61 283.502  18
  -8   1   6 16736.5 835.491  18
  -8   1   7 8765.42 595.165  18
  -8   1   8 780.902 203.584  18
  -8   1   9 86.3706 98.9147  18
  -8   1  10 1925.49 198.313  18
  -8   2  -5 178.251 72.7861  10
  -8   2  -4 2586.04 253.505  17
  -8   2  -4 2729.80 249.309  10
  -8   2  -3 6463.02 452.927  17
  -8   2  -2 12804.7 683.085  17
  -8   2  -1 20034.4 890.734  17
  -8   2   0 5502.42 485.461  17
  -8   2   1 15354.9 796.701  18
  -8   2   2 31027.5 1133.15  18
  -8   2   3 31029.3 1130.90  18
  -8   2   4 551.302 189.492  18
  -8   2   5 4862.53 465.481  18
  -8   2   6 68824.6 1614.27  18
  -8   2   7 19446.2 823.711  18
  -8   2   8 10586.2 556.090  18
  -8   3  -5 3064.78 224.093  10
  -8   3  -4 6551.91 398.318  17
  -8   3  -4 6871.24 413.282  10
  -8   3  -3 2449.99 295.153  17
  -8   3  -2 4582.86 419.782  17
  -8   3  -1 1080.43 237.593  17
  -8   3   0 171.294 167.787  17
  -8   3   1 3659.43 404.163  18
  -8   3   2 1063.20 265.830  18
  -8   3   3 2146.07 328.744  18
  -8   3   4 710.593 227.551  18
  -8   3   5 8272.16 566.028  18
  -8   3   6 233.181 130.009  18
  -8   3   7 20070.9 754.482  18
  -8   4  -5 8699.07 392.118  10
  -8   4  -4 15727.2 589.279  17
  -8   4  -4 16239.3 642.709  10
  -8   4  -3 8766.56 501.753  17
  -8   4  -2 14254.8 683.674  17
  -8   4  -1 43386.2 1229.01  17
  -8   4   0 18494.2 819.269  17
  -8   4   1 19658.2 882.693  18
  -8   4   2 37766.7 1206.94  18
  -8   4   3 35788.0 1156.31  18
  -8   4   4 35738.2 1116.38  18
  -8   4   5 239.564 131.944  18
  -8   5  -5 12030.3 462.032  10
  -8   5  -4 867.543 139.927  17
  -8   5  -3 1069.21 176.050  17
  -8   5  -2 2397.30 273.265  17
  -8   5  -1 2626.97 306.200  17
  -8   5   0 8136.22 505.911  17
  -8   5   2 1022.76 244.682  18
  -8   5   3 3609.46 349.098  18
  -8   6  -5 1458.69 166.024  10
  -8   7  -5 790.682 114.985  10
  -8   7  -4 249.319 105.319  10
  -8   7  -2-17.5572 97.8195  11
  -8   7  -1 1259.09 183.379  11
  -8   8  -2 11740.8 482.159  11
  -8   8  -1 15008.8 576.535  11
  -8   9  -3 354.702 81.2130  11
  -8   9  -2 4309.60 269.468  11
  -8   9  -1 1038.84 155.281  11
  -8  10  -2 2236.08 158.876  11
  -8  10  -1 7127.73 299.249  11
  -8  10   0 13512.1 415.303  11
  -7  -9   5 451.460 111.074  13
  -7  -9   6 59.1954 105.953   7
  -7  -9   6 173.883 89.1131  13
  -7  -9   7 5465.20 353.076   7
  -7  -9   7 5467.09 315.890  13
  -7  -9   8 4638.98 277.784  13
  -7  -9   8 4749.14 303.381   7
  -7  -8   2 7349.19 309.533  13
  -7  -8   3 8451.60 413.903  13
  -7  -8   4 2784.78 281.528  13
  -7  -8   5 9394.48 567.099   7
  -7  -8   5 9148.86 421.141  19
  -7  -8   5 8439.59 493.174  13
  -7  -8   6 9873.81 455.291  19
  -7  -8   6 9925.21 594.241   7
  -7  -8   7 369.445 115.130  19
  -7  -8   7 510.162 200.870   7
  -7  -8   8 3678.73 344.267   7
  -7  -8   8 3935.80 282.775  19
  -7  -8   9 5469.78 327.674   9
  -7  -8   9 5397.01 304.385  19
  -7  -8  10 6386.33 335.628   9
  -7  -8  11 527.008 105.347   9
  -7  -7   1 262.372 102.413  13
  -7  -7   1 303.211 77.3005  19
  -7  -7   2 2694.80 240.644  19
  -7  -7   2 3073.35 297.256  13
  -7  -7   3 5446.87 428.379  13
  -7  -7   3 5585.86 377.341  19
  -7  -7   4 11081.8 565.416  19
  -7  -7   4 11037.9 697.062   7
  -7  -7   4 10412.5 614.029  13
  -7  -7   5 5272.33 508.708   7
  -7  -7   5 5768.86 428.279  19
  -7  -7   6 1340.57 288.292   7
  -7  -7   6 1680.04 242.731  19
  -7  -7   7 1972.03 317.692   7
  -7  -7   7 1983.01 248.598   9
  -7  -7   8 4580.94 377.212   9
  -7  -7   8 3980.87 391.744   7
  -7  -7   9 7500.40 465.448   9
  -7  -7  10 8078.86 459.168   9
  -7  -7  11 18053.7 601.448   9
  -7  -7  12 7408.31 312.038   9
  -7  -6   0 7427.12 382.875  19
  -7  -6   0 7075.25 373.236  13
  -7  -6   1 10540.2 533.831  19
  -7  -6   1 10815.5 555.654  13
  -7  -6   2 3153.11 331.626  19
  -7  -6   2 3264.31 351.731  13
  -7  -6   3 724.350 234.961  13
  -7  -6   3 562.008 188.210  19
  -7  -6   3 921.437 290.732   7
  -7  -6   4 20352.6 1019.92   7
  -7  -6   4 21152.5 881.523  19
  -7  -6   5 9227.18 597.463  19
  -7  -6   5 8641.52 674.120   7
  -7  -6   6 1508.00 336.845   7
  -7  -6   6 932.168 209.433   9
  -7  -6   7 5009.39 502.252   7
  -7  -6   7 6056.94 469.073   9
  -7  -6   8 2975.99 351.253   9
  -7  -6   8 2915.91 351.748   7
  -7  -6   8 2713.08 274.508  18
  -7  -6   9-17.2151 160.813   9
  -7  -6   9 145.177 108.047  18
  -7  -6  10 3906.23 324.052  18
  -7  -6  10 4131.89 378.081   9
  -7  -6  11 4124.77 334.654   9
  -7  -6  11 3637.33 286.608  18
  -7  -6  12 769.392 127.922  18
  -7  -6  12 709.481 132.299   9
  -7  -5  -2 3568.03 214.115  19
  -7  -5  -1 6978.26 398.120  19
  -7  -5   0 4221.80 361.767  13
  -7  -5   0 4837.30 391.432  19
  -7  -5   1 2409.05 317.488  13
  -7  -5   1 2102.96 301.459  19
  -7  -5   2 9490.44 616.418  19
  -7  -5   2 9561.87 732.305   7
  -7  -5   2 8110.80 583.392  13
  -7  -5   3 14690.5 903.321   7
  -7  -5   3 14450.5 771.220  19
  -7  -5   4 24260.6 1001.79  19
  -7  -5   4 22717.5 1122.56   7
  -7  -5   5 39687.8 1173.08   9
  -7  -5   5 38853.5 1439.67   7
  -7  -5   6 14236.7 661.188  18
  -7  -5   6 13812.7 839.074   7
  -7  -5   6 13989.8 736.200   9
  -7  -5   7 8354.71 621.173   7
  -7  -5   7 8540.75 599.872   9
  -7  -5   7 8191.64 526.403  18
  -7  -5   8 9611.20 581.607  18
  -7  -5   8 9599.20 635.681   9
  -7  -5   9 3582.66 393.615   9
  -7  -5   9 3720.50 368.866  18
  -7  -5  10 8753.24 532.120  18
  -7  -5  10 9520.40 589.459   9
  -7  -5  11 9527.89 513.979   9
  -7  -5  11 9219.49 497.120  18
  -7  -5  12 4632.47 305.314  18
  -7  -5  12 4445.15 287.798   9
  -7  -4  -3 8818.76 332.035  19
  -7  -4  -2 8571.99 445.237  19
  -7  -4  -1 16040.4 707.103  19
  -7  -4  -1 15665.2 631.121  13
  -7  -4   0 16845.5 752.877  13
  -7  -4   0 15393.5 624.456  17
  -7  -4   0 16652.8 790.054  19
  -7  -4   1 7316.07 471.518  17
  -7  -4   1 6632.12 525.730  13
  -7  -4   1 6566.69 532.480  19
  -7  -4   2 8178.73 605.783  19
  -7  -4   2 8154.31 511.968  17
  -7  -4   2 7999.43 692.314   7
  -7  -4   3 3056.90 443.058   7
  -7  -4   3 2540.34 356.754  19
  -7  -4   4 5207.16 568.860   7
  -7  -4   4 5632.65 459.346   9
  -7  -4   5 504.733 231.716   7
  -7  -4   5 630.623 224.618   9
  -7  -4   5 1008.21 207.561  18
  -7  -4   6 5352.28 494.272   9
  -7  -4   6 5062.29 511.969   7
  -7  -4   6 5562.24 458.497  18
  -7  -4   7 1452.99 310.666   9
  -7  -4   7 1377.78 253.286  18
  -7  -4   8 706.639 255.015   9
  -7  -4   8 647.920 198.684  18
  -7  -4   9 100.676 149.131  18
  -7  -4   9 100.198 185.935   9
  -7  -4  10 3599.56 373.510   9
  -7  -4  10 3430.15 371.212  18
  -7  -4  11 1040.13 207.664   9
  -7  -4  11 920.637 209.494  18
  -7  -4  12 795.950 159.356  18
  -7  -4  12 811.590 139.682   9
  -7  -4  13 50.5194 50.2383  18
  -7  -3  -3 13636.5 541.772  19
  -7  -3  -2 6304.46 376.742  17
  -7  -3  -2 6266.93 448.198  19
  -7  -3  -1 1507.38 225.966  17
  -7  -3  -1 1428.14 279.262  19
  -7  -3   0 15222.7 736.481  13
  -7  -3   0 14117.3 774.587  19
  -7  -3   0 14889.2 713.855  17
  -7  -3   1 17958.6 881.956  19
  -7  -3   1 18569.5 817.215  17
  -7  -3   2 20097.0 1084.09   7
  -7  -3   2 21058.9 956.998  19
  -7  -3   3 9971.60 575.261  18
  -7  -3   3 9903.82 767.764   7
  -7  -3   4 34619.8 1168.42   9
  -7  -3   4 34775.5 1106.83  18
  -7  -3   4 34504.0 1358.46   7
  -7  -3   5 92925.0 1967.01   9
  -7  -3   5 90142.6 2110.09   7
  -7  -3   5 92476.1 1861.40  18
  -7  -3   6 26291.8 1066.44   9
  -7  -3   6 26987.6 1029.73  18
  -7  -3   7 14006.2 763.161  18
  -7  -3   7 13863.9 786.351   9
  -7  -3   8 16856.5 846.713   9
  -7  -3   8 17464.3 851.418  18
  -7  -3   9 14491.8 765.455   9
  -7  -3  10 6839.54 493.869   9
  -7  -3  11 8634.70 469.168   9
  -7  -3  11 8336.96 509.479  18
  -7  -3  12 5937.47 361.983  18
  -7  -2  -4 443.265 109.491  19
  -7  -2  -3 5777.22 372.792  17
  -7  -2  -3 5080.55 390.443  19
  -7  -2  -2 3594.28 394.605  19
  -7  -2  -2 3675.21 353.388  17
  -7  -2  -1 44141.9 1336.41  19
  -7  -2  -1 42933.7 1243.90  17
  -7  -2   0 28046.0 1094.48  19
  -7  -2   0 27603.0 1034.26  17
  -7  -2   1 4693.74 462.337  19
  -7  -2   1 5041.15 406.036  18
  -7  -2   1 4768.88 444.270  17
  -7  -2   2 1221.52 282.125  19
  -7  -2   2 1077.88 213.420  18
  -7  -2   2 921.950 314.706   7
  -7  -2   3 1112.75 310.263   7
  -7  -2   3 1544.57 253.319  18
  -7  -2   3 1704.39 561.722   1
  -7  -2   4 9980.93 644.156   9
  -7  -2   4 10911.5 647.234  18
  -7  -2   4 10284.2 1276.94   1
  -7  -2   4 9202.75 676.496   7
  -7  -2   5 809.807 242.184   9
  -7  -2   5 689.129 222.164  18
  -7  -2   6 245.915 141.473  18
  -7  -2   6 420.117 207.641   9
  -7  -2   7-49.2306 165.319   9
  -7  -2   7 40.4616 123.571  18
  -7  -2   8 997.794 269.178  18
  -7  -2   8 1168.61 283.721   9
  -7  -2   9 3534.85 392.738   9
  -7  -2  10 867.100 237.191  18
  -7  -2  10 861.295 208.895   9
  -7  -2  11 136.206 135.035  18
  -7  -2  12 298.668 106.060  18
  -7  -1  -5 3525.41 214.042  19
  -7  -1  -4 10706.0 493.339  17
  -7  -1  -4 11197.3 520.181  19
  -7  -1  -3 19781.2 672.478  10
  -7  -1  -3 19274.0 791.481  19
  -7  -1  -3 19369.5 776.502  17
  -7  -1  -2 33360.6 969.535  10
  -7  -1  -2 32364.9 1096.34  17
  -7  -1  -2 32846.4 1116.42  19
  -7  -1  -1 726.578 232.957  19
  -7  -1  -1 778.804 206.231  17
  -7  -1   0 1417.61 278.676  19
  -7  -1   0 1373.21 263.246  17
  -7  -1   1 10343.2 647.313  19
  -7  -1   1 10838.1 626.133  18
  -7  -1   1 12019.3 1407.48   3
  -7  -1   2 25133.4 955.114  18
  -7  -1   3 45239.7 1304.17  18
  -7  -1   3 48838.7 2739.41   1
  -7  -1   4 18268.7 1695.45   1
  -7  -1   4 17830.9 852.505   9
  -7  -1   4 17986.7 840.254  18
  -7  -1   5 12696.8 735.784   9
  -7  -1   5 13674.4 1234.76   2
  -7  -1   5 13124.6 1418.57   1
  -7  -1   5 13386.3 731.325  18
  -7  -1   6 37911.2 2173.07   2
  -7  -1   6 36053.1 2303.92   1
  -7  -1   6 36941.1 1244.04   9
  -7  -1   6 37039.4 1234.57  18
  -7  -1   7 25141.1 1025.75   9
  -7  -1   7 26963.1 1056.56  18
  -7  -1   8 13490.1 744.560   9
  -7  -1   8 13214.9 751.551  18
  -7  -1   9 10022.0 595.442   9
  -7  -1   9 9979.22 640.001  18
  -7  -1  10 6423.42 481.132  18
  -7  -1  11 3369.21 304.926  18
  -7  -1  12 367.597 84.6691  18
  -7   0  -5 573.101 112.473  19
  -7   0  -4 1023.21 182.394  10
  -7   0  -4 1107.32 195.965  19
  -7   0  -4 1154.46 218.712  17
  -7   0  -3 60.0314 140.799  19
  -7   0  -3 42.9282 150.059  17
  -7   0  -3 268.216 128.838  10
  -7   0  -2 11895.5 685.846  19
  -7   0  -2 12000.3 704.067  17
  -7   0  -1 50.9547 150.990  17
  -7   0  -1 289.349 195.126  19
  -7   0   0 13627.8 713.384  18
  -7   0   0 12421.1 699.746  19
  -7   0   1 2158.73 295.089  18
  -7   0   1 1827.52 286.343  19
  -7   0   1 1394.41 477.452   3
  -7   0   2 9503.99 1209.05   3
  -7   0   2 11045.9 648.074  18
  -7   0   3 11106.4 657.868  18
  -7   0   3 10553.4 1277.12   3
  -7   0   3 9505.37 985.230   2
  -7   0   4 6649.67 531.131   9
  -7   0   4 5771.81 944.127   1
  -7   0   4 6119.32 848.137   2
  -7   0   4 6827.24 521.799  18
  -7   0   5 13436.9 743.270  18
  -7   0   5 14352.0 1309.90   2
  -7   0   5 12019.5 1338.53   1
  -7   0   5 12783.0 731.958   9
  -7   0   6 10846.1 1219.11   2
  -7   0   6 11233.5 700.774  18
  -7   0   6 9764.12 1173.77   1
  -7   0   6 10641.2 667.952   9
  -7   0   7 25236.5 1011.78  18
  -7   0   7 24693.0 987.138   9
  -7   0   8 195.855 193.615  18
  -7   0   8 524.889 175.670   9
  -7   0   9 6063.73 480.561  18
  -7   0  10 11227.3 577.111  18
  -7   0  11 2321.43 220.110  18
  -7   1  -6 6209.83 257.901  10
  -7   1  -5 15443.3 577.463  10
  -7   1  -5 15645.3 536.963  19
  -7   1  -5 16154.4 626.055  17
  -7   1  -4 25541.0 837.794  19
  -7   1  -4 24721.6 905.606  17
  -7   1  -4 24888.3 852.887  10
  -7   1  -3 27000.9 1029.97  17
  -7   1  -3 29909.9 996.139  19
  -7   1  -2 11365.8 694.780  17
  -7   1  -2 11829.7 661.745  19
  -7   1  -1 61708.1 1595.40  17
  -7   1  -1 62137.9 1510.33  19
  -7   1   0 124055. 4423.64   3
  -7   1   0 121672. 2150.16  18
  -7   1   0 115231. 2016.62  19
  -7   1   1 3105.04 359.062  18
  -7   1   1 2016.78 568.111   3
  -7   1   2 2922.46 696.186   3
  -7   1   2 3436.59 379.424  18
  -7   1   3 14565.7 1459.37   3
  -7   1   3 14792.6 763.025  18
  -7   1   3 13694.1 1269.71   2
  -7   1   4 78950.2 1739.02  18
  -7   1   4 75034.5 3013.61   2
  -7   1   5 21183.1 922.847  18
  -7   1   5 21262.5 1682.01   1
  -7   1   5 21368.1 1670.42   2
  -7   1   6 28357.1 1069.00  18
  -7   1   6 31732.1 2081.51   2
  -7   1   7 41834.4 1290.57  18
  -7   1   8 7840.81 548.308  18
  -7   1   9 13629.7 662.339  18
  -7   1  10 72.2884 87.7053  18
  -7   2  -6 430.186 118.188  10
  -7   2  -5 235.034 124.914  10
  -7   2  -5 525.669 166.157  17
  -7   2  -4 2674.45 344.092  17
  -7   2  -4 2218.48 291.313  10
  -7   2  -3 39.5371 160.553  17
  -7   2  -2 15576.3 806.922  17
  -7   2  -1 4724.78 456.060  17
  -7   2   0 7140.38 1044.93   3
  -7   2   0 5315.73 465.449  18
  -7   2   1 4065.83 817.576   3
  -7   2   1 5150.31 469.644  18
  -7   2   2 2168.99 528.623   2
  -7   2   2 1233.53 490.685   3
  -7   2   2 1519.21 277.394  18
  -7   2   3 22931.5 1670.03   2
  -7   2   3 24327.7 968.193  18
  -7   2   3 25730.6 1925.25   3
  -7   2   4 29928.7 1961.69   2
  -7   2   4 27269.7 1023.90  18
  -7   2   5 88131.8 1841.24  18
  -7   2   5 103164. 3736.63   2
  -7   2   6 16911.9 816.352  18
  -7   2   7 4502.31 417.280  18
  -7   2   8 8450.80 520.358  18
  -7   3  -6 3237.62 271.973  10
  -7   3  -5 15109.7 653.373  17
  -7   3  -5 15483.3 675.890  10
  -7   3  -4 19056.5 819.115  17
  -7   3  -3 26379.3 1011.32  17
  -7   3  -2 68916.0 1648.75  17
  -7   3  -1 20141.3 888.090  17
  -7   3   0 28074.7 2128.99   3
  -7   3   0 28221.6 1063.79  18
  -7   3   1 50933.6 2797.40   3
  -7   3   1 52770.1 1437.69  18
  -7   3   2 21623.1 1772.55   3
  -7   3   2 21692.3 1667.60   2
  -7   3   2 20757.4 896.077  18
  -7   3   3 1562.46 526.627   3
  -7   3   3 838.582 197.986  18
  -7   3   3 1502.23 471.682   2
  -7   3   4 47968.1 2546.45   2
  -7   3   4 41930.6 1253.28  18
  -7   3   5 92124.1 1825.49  18
  -7   3   6 7681.72 526.231  18
  -7   4  -7 489.552 96.0214  10
  -7   4  -6 149.043 118.840  10
  -7   4  -5 40.9823 147.442  10
  -7   4  -5 33.9430 118.642  17
  -7   4  -4 19800.4 815.584  17
  -7   4  -3 10770.1 633.296  17
  -7   4  -2 61.8595 132.641  17
  -7   4  -1 677.550 195.539  17
  -7   4   0 5072.07 922.027   3
  -7   4   0 6497.34 527.368  18
  -7   4   1 20892.8 1756.27   3
  -7   4   1 19556.7 869.872  18
  -7   4   2 18705.3 1591.51   2
  -7   4   2 18964.3 845.948  18
  -7   4   2 20056.5 1689.75   3
  -7   4   3 2243.65 303.810  18
  -7   4   3 2075.17 545.805   2
  -7   4   4 2185.91 286.394  18
  -7   5  -7 2025.26 173.456  10
  -7   5  -6 19092.2 649.389  10
  -7   5  -5 10467.4 501.843  17
  -7   5  -5 10103.7 555.628  10
  -7   5  -4 3885.71 344.837  17
  -7   5  -3 17252.4 700.260  11
  -7   5  -3 16302.2 726.829  17
  -7   5  -2 13760.7 637.287  11
  -7   5  -2 13525.1 677.671  17
  -7   5   1 4759.01 432.109  18
  -7   5   2 1528.41 255.866  18
  -7   6  -7 205.684 72.1448  10
  -7   6  -6 5221.99 338.331  10
  -7   6  -5 7348.45 402.988  11
  -7   6  -5 7069.85 451.910  10
  -7   6  -4 1901.65 241.332  11
  -7   6  -3 35077.1 1020.36  11
  -7   6  -2 55025.6 1311.66  11
  -7   7  -6 13764.1 477.188  10
  -7   7  -5 3340.18 280.245  11
  -7   7  -5 2644.50 258.688  10
  -7   7  -4 12440.4 579.750  11
  -7   7  -3 7591.08 476.722  11
  -7   8  -6 6431.55 303.910  11
  -7   8  -5 11267.8 484.583  11
  -7   8  -5 10932.5 425.684  10
  -7   8  -4 8126.25 454.188  11
  -7   8  -3 14565.7 647.685  11
  -7   9  -6 4853.19 235.839  11
  -7   9  -5 12756.9 474.088  11
  -7   9  -4 1603.39 208.143  11
  -7   9  -3 325.665 144.600  11
  -7  10  -5 11015.3 378.571  11
  -7  10  -4 9246.06 403.354  11
  -7  10  -3 4898.84 320.845  11
  -7  11  -4 194.027 56.2777  11
  -7  11  -3 316.964 89.5609  11
  -7  11  -2 117.096 76.3116  11
  -6 -10   5 5760.55 285.602  13
  -6 -10   5 6764.12 363.916   7
  -6 -10   6 6465.29 316.048  13
  -6 -10   6 7755.17 425.425   7
  -6 -10   7 4564.21 337.455   7
  -6 -10   8 1633.16 211.784   7
  -6 -10   9 19823.0 551.491   7
  -6  -9   2 5349.22 290.044  13
  -6  -9   3 2006.81 231.510  13
  -6  -9   4 7428.64 487.972   7
  -6  -9   4 7176.37 440.164  13
  -6  -9   5 267.272 172.928   7
  -6  -9   5 708.610 185.180  13
  -6  -9   6 2178.56 322.543   7
  -6  -9   6 2306.62 280.241  13
  -6  -9   7 340.476 202.185   7
  -6  -9   8 3644.83 365.420   7
  -6  -9   9 14153.8 505.416   9
  -6  -9   9 14729.6 625.014   7
  -6  -9  10 147.799 93.0808   9
  -6  -9  11 19.2640 67.3852   9
  -6  -8   1 8347.29 432.201  13
  -6  -8   2 11730.8 594.460  13
  -6  -8   3 1642.17 278.419  13
  -6  -8   3 1984.66 330.811   7
  -6  -8   3 1670.17 200.371  19
  -6  -8   4 1211.61 187.934  19
  -6  -8   4 1030.07 264.753   7
  -6  -8   4 987.097 251.204  13
  -6  -8   5 11852.2 580.851  19
  -6  -8   5 11717.4 753.407   7
  -6  -8   6 6601.83 437.289  19
  -6  -8   6 6459.56 571.521   7
  -6  -8   7 16982.6 657.209   9
  -6  -8   7 15918.5 851.337   7
  -6  -8   8 5294.89 397.871   9
  -6  -8   8 5234.47 485.500   7
  -6  -8   9 5554.56 406.766   9
  -6  -8   9 5272.45 433.185   7
  -6  -8  10 3659.22 329.192   9
  -6  -8  11 4482.48 323.402   9
  -6  -8  12 8558.48 358.304   9
  -6  -7   0 216.009 100.109  19
  -6  -7   0 79.5300 113.318  13
  -6  -7   1 1317.76 252.763  13
  -6  -7   1 1653.89 232.375  19
  -6  -7   2 1551.62 288.698  13
  -6  -7   2 2563.82 301.059  19
  -6  -7   2 2235.34 378.635   7
  -6  -7   3 1313.58 340.935   7
  -6  -7   3 665.092 176.299  19
  -6  -7   3 799.811 249.044  13
  -6  -7   4-142.714 251.289   7
  -6  -7   4 286.260 170.225  19
  -6  -7   5 24.7923 228.330   7
  -6  -7   5-232.534 136.049  19
  -6  -7   6 630.642 186.868   9
  -6  -7   6 641.819 250.325   7
  -6  -7   7 756.569 230.584   7
  -6  -7   7 759.223 209.594   9
  -6  -7   8 111.426 142.372   9
  -6  -7   8 206.703 183.754   7
  -6  -7   9 9452.52 591.676   9
  -6  -7   9 10353.3 526.718   8
  -6  -7   9 9540.35 496.467  18
  -6  -7   9 9435.14 586.026   7
  -6  -7  10 5735.83 458.202   9
  -6  -7  10 5490.29 385.225   8
  -6  -7  10 5153.15 363.177  18
  -6  -7  11 3562.96 338.364   9
  -6  -7  11 3474.63 295.269   8
  -6  -7  11 2989.85 259.698  18
  -6  -7  12 1762.49 208.880   9
  -6  -7  12 1295.13 153.365  18
  -6  -6  -2 3887.51 246.936  19
  -6  -6  -1 8030.16 445.969  19
  -6  -6  -1 7428.53 457.004  13
  -6  -6   0 13104.8 691.371  13
  -6  -6   0 13330.1 649.765  19
  -6  -6   1 30037.8 1045.69  19
  -6  -6   1 29812.6 1109.74  13
  -6  -6   1 29513.9 1184.92   7
  -6  -6   2 18483.5 1002.32   7
  -6  -6   2 18625.9 926.557  13
  -6  -6   2 18080.2 843.675  19
  -6  -6   3 11065.5 676.261  19
  -6  -6   3 12650.8 856.333   7
  -6  -6   4 25382.5 1214.63   7
  -6  -6   4 28403.2 1071.81  19
  -6  -6   5 26477.6 941.924   9
  -6  -6   5 25789.2 1209.79   7
  -6  -6   6 10009.3 748.478   7
  -6  -6   6 10856.9 646.641   9
  -6  -6   7 6239.85 579.712   7
  -6  -6   7 6623.49 530.702   9
  -6  -6   8 16253.6 847.951   7
  -6  -6   8 16242.9 733.548  18
  -6  -6   8 17134.2 739.188   8
  -6  -6   8 16703.4 837.352   9
  -6  -6   9 8146.53 529.329   8
  -6  -6   9 7762.22 577.424   9
  -6  -6  10 4744.04 448.086   9
  -6  -6  10 4571.18 394.588   8
  -6  -6  11 26371.6 857.011   8
  -6  -6  11 26091.7 893.128   9
  -6  -6  12 7743.50 420.157   9
  -6  -6  12 8177.28 425.397   8
  -6  -6  13 12845.1 409.244  18
  -6  -5  -3 241.530 95.3640  19
  -6  -5  -2 571.698 160.258  19
  -6  -5  -1 823.597 213.507  13
  -6  -5  -1 978.132 223.725  19
  -6  -5   0 197.469 161.189  19
  -6  -5   0 304.176 189.217  13
  -6  -5   1 3909.62 409.345  19
  -6  -5   1 3846.73 487.207   7
  -6  -5   1 3783.07 441.287  13
  -6  -5   2 7523.87 575.033  19
  -6  -5   2 7611.73 693.911   7
  -6  -5   3 80.4034 144.380  19
  -6  -5   3-98.3725 200.682   7
  -6  -5   4 710.322 179.796   9
  -6  -5   4 125.804 225.171   7
  -6  -5   5 6377.02 503.460   9
  -6  -5   5 6703.20 631.618   7
  -6  -5   6 707.849 271.576   7
  -6  -5   6 472.250 188.557   9
  -6  -5   6 645.419 166.940  18
  -6  -5   7 385.409 199.725   9
  -6  -5   7 281.695 176.276   7
  -6  -5   7 861.466 216.158   8
  -6  -5   8 1164.94 278.109   9
  -6  -5   8 885.916 218.517   8
  -6  -5   9 17207.9 853.163   9
  -6  -5   9 15480.2 763.117   8
  -6  -5  10 17266.6 786.011   8
  -6  -5  10 15616.2 785.276   9
  -6  -5  11 20176.3 793.822   8
  -6  -5  11 18432.1 765.381   9
  -6  -5  12 8999.06 453.296   9
  -6  -5  12 8687.63 459.553   8
  -6  -5  13 287.803 93.8383  18
  -6  -4  -4 4815.59 293.312  19
  -6  -4  -3 1088.53 211.571  19
  -6  -4  -2 11169.5 610.903  13
  -6  -4  -2 10920.8 634.379  19
  -6  -4  -1 22357.7 802.144  17
  -6  -4  -1 22220.9 955.604  19
  -6  -4  -1 20998.2 921.010  13
  -6  -4   0 19211.6 785.202  17
  -6  -4   0 18607.9 903.083  13
  -6  -4   0 18224.0 897.996  19
  -6  -4   1 15501.0 710.896  17
  -6  -4   1 14913.9 947.221   7
  -6  -4   1 16360.4 847.686  19
  -6  -4   2 40830.2 1301.66  19
  -6  -4   2 36443.4 2238.44   1
  -6  -4   2 36089.4 1435.45   7
  -6  -4   3 57675.5 2867.79   1
  -6  -4   3 62501.2 1848.14   7
  -6  -4   3 57198.8 1373.57   9
  -6  -4   4 4850.24 525.180   7
  -6  -4   4 5247.21 452.587   9
  -6  -4   4 5489.18 929.852   1
  -6  -4   5 8811.93 689.805   7
  -6  -4   5 8542.44 539.862  18
  -6  -4   5 8762.70 1152.57   1
  -6  -4   5 8817.33 593.099   9
  -6  -4   6 35445.8 1199.41   9
  -6  -4   6 36170.1 1139.77  18
  -6  -4   6 37028.7 1094.08   8
  -6  -4   7 8218.17 597.184   9
  -6  -4   7 9031.59 580.219   8
  -6  -4   8 2769.26 350.074   8
  -6  -4   8 3522.69 414.279   9
  -6  -4   9 30332.1 1127.84   9
  -6  -4   9 29801.2 1080.00   8
  -6  -4  10 6312.92 513.472   8
  -6  -4  10 6751.84 530.851   9
  -6  -4  11 458.357 176.417   9
  -6  -4  11 238.548 170.755   8
  -6  -4  12 5087.02 325.979   9
  -6  -4  13 22135.6 585.522  18
  -6  -3  -5 551.317 109.532  19
  -6  -3  -4 8223.24 474.732  19
  -6  -3  -3 1056.16 190.225  17
  -6  -3  -3 832.334 218.159  19
  -6  -3  -2 2890.01 318.790  17
  -6  -3  -2 2912.80 335.065  13
  -6  -3  -2 2923.38 388.958  19
  -6  -3  -1 3472.67 413.570  19
  -6  -3  -1 3410.79 385.449  13
  -6  -3  -1 3120.44 352.897  17
  -6  -3   0 3608.57 491.708   7
  -6  -3   0 2996.96 347.134  17
  -6  -3   0 3689.10 428.282  19
  -6  -3   0 3636.55 416.265  13
  -6  -3   1 17615.0 797.552  17
  -6  -3   1 16570.6 1478.52   1
  -6  -3   1 18051.4 874.117  19
  -6  -3   1 17486.4 999.329   7
  -6  -3   2 3826.86 755.187   1
  -6  -3   2 4599.77 522.471   7
  -6  -3   3 28799.7 2001.51   1
  -6  -3   3 29522.6 1219.06   7
  -6  -3   3 29265.3 1000.75   9
  -6  -3   4 44146.4 1262.04   9
  -6  -3   4 41867.6 1165.98  18
  -6  -3   4 45213.4 2519.00   1
  -6  -3   4 42919.6 1437.95   7
  -6  -3   5 3009.47 335.235  18
  -6  -3   5 3255.04 365.898   9
  -6  -3   5 3551.90 775.954   1
  -6  -3   6 10598.7 652.862   9
  -6  -3   6 10640.0 1268.09   1
  -6  -3   6 9887.30 589.218   8
  -6  -3   7 18954.8 846.758   8
  -6  -3   7 19106.1 900.644   9
  -6  -3   8 1482.83 296.939   9
  -6  -3   8 1025.48 268.984   8
  -6  -3   9 7123.96 546.074   8
  -6  -3   9 6278.12 521.887   9
  -6  -3  10 11898.8 664.191   9
  -6  -3  10 11623.8 666.266   8
  -6  -3  11 11270.7 608.073   8
  -6  -3  11 10449.3 544.270   9
  -6  -3  13 17181.3 478.816  18
  -6  -2  -5 17854.9 639.677  19
  -6  -2  -4 52346.7 1297.01  19
  -6  -2  -4 52035.6 1178.15  17
  -6  -2  -3 13889.4 752.358  19
  -6  -2  -3 14269.8 703.923  17
  -6  -2  -2 9789.32 621.031  17
  -6  -2  -2 10008.7 668.525  19
  -6  -2  -1 27298.1 1085.42  19
  -6  -2  -1 28185.3 1050.09  17
  -6  -2   0 29434.9 1106.16  19
  -6  -2   0 30092.0 1066.92  17
  -6  -2   1 20167.2 882.998  19
  -6  -2   1 18463.2 988.753   7
  -6  -2   2 34090.1 2124.64   1
  -6  -2   2 33792.1 1292.08   7
  -6  -2   3 77049.5 3182.78   1
  -6  -2   4 30908.7 2045.60   1
  -6  -2   5 10777.9 1214.09   1
  -6  -2   5 12350.7 646.187  18
  -6  -2   5 11987.1 665.521   9
  -6  -2   5 11020.4 1008.64   2
  -6  -2   6 5712.73 748.801   2
  -6  -2   6 5088.92 869.312   1
  -6  -2   6 5462.28 438.213   8
  -6  -2   6 5193.00 464.561   9
  -6  -2   7 1388.37 266.965   9
  -6  -2   7 1882.24 474.974   2
  -6  -2   7 2127.93 308.528   8
  -6  -2   8 4676.42 790.907   2
  -6  -2   8 4876.15 465.113   9
  -6  -2   8 4630.87 452.295   8
  -6  -2   9 1936.82 313.138   9
  -6  -2   9 1988.56 321.302   8
  -6  -2  10-142.281 169.320   8
  -6  -2  10 22.7430 128.450   9
  -6  -1  -6 817.241 145.961  19
  -6  -1  -5 6647.25 449.942  19
  -6  -1  -5 6985.05 434.690  17
  -6  -1  -5 7018.14 378.321  10
  -6  -1  -4 8283.91 486.981  10
  -6  -1  -4 8484.96 549.113  17
  -6  -1  -4 8066.82 558.656  19
  -6  -1  -3 11653.3 615.185  10
  -6  -1  -3 11204.6 671.334  17
  -6  -1  -3 11433.6 697.717  19
  -6  -1  -2 16598.2 844.520  19
  -6  -1  -2 16511.1 825.614  17
  -6  -1  -1 24274.4 975.529  17
  -6  -1  -1 22240.9 959.955  19
  -6  -1   0 39331.9 1220.93  19
  -6  -1   0 37725.9 2262.75   3
  -6  -1   0 38737.7 1106.99  18
  -6  -1   1 16525.5 1492.48   3
  -6  -1   2 14745.5 1395.05   3
  -6  -1   3 98761.9 2811.81   2
  -6  -1   3 96260.6 3514.98   3
  -6  -1   4 30941.1 1958.00   1
  -6  -1   4 25581.8 1512.88   2
  -6  -1   5 23190.5 1703.66   1
  -6  -1   5 21960.4 1487.24   2
  -6  -1   6 34401.4 2078.30   1
  -6  -1   6 36301.8 1116.97   8
  -6  -1   6 34057.2 1119.67   9
  -6  -1   7 18715.9 1544.36   2
  -6  -1   7 19447.1 851.431   8
  -6  -1   7 18551.4 845.245   9
  -6  -1   8 6792.01 522.979   8
  -6  -1   8 7347.26 977.410   2
  -6  -1   8 6767.08 517.334   9
  -6  -1   9 24634.0 966.233   8
  -6  -1   9 22958.2 892.415   9
  -6  -1  12 6948.62 335.746  18
  -6   0  -7 6170.84 234.899  15
  -6   0  -6 7512.53 413.229  19
  -6   0  -6 6962.96 363.995  10
  -6   0  -5 9961.85 534.607  10
  -6   0  -5 10046.4 574.646  19
  -6   0  -5 10128.2 574.016  17
  -6   0  -4 13895.0 733.988  17
  -6   0  -4 13523.7 726.035  19
  -6   0  -4 12315.2 652.747  10
  -6   0  -3 14748.5 784.791  17
  -6   0  -3 14797.7 780.108  19
  -6   0  -2 70362.8 3116.24   3
  -6   0  -2 69336.5 1668.19  19
  -6   0  -2 76657.5 1760.87  17
  -6   0  -1 169.260 274.850   3
  -6   0  -1 410.463 184.596  19
  -6   0  -1 244.736 165.105  17
  -6   0  -1 255.624 134.173  18
  -6   0   0 1985.10 513.535   3
  -6   0   1 22983.9 1717.11   3
  -6   0   2 20073.7 1603.90   3
  -6   0   2 25345.4 1452.37   2
  -6   0   3 38209.1 2168.92   3
  -6   0   3 41322.1 1908.15   2
  -6   0   4 12603.2 1094.23   2
  -6   0   5 9390.07 1047.71   1
  -6   0   5 10095.2 1037.88   2
  -6   0   6 326.420 282.149   1
  -6   0   6 600.282 298.583   2
  -6   0   6 946.134 209.914   9
  -6   0   7 2626.01 601.851   2
  -6   0   7 2756.00 350.153   9
  -6   0  11 312.344 102.353  18
  -6   1  -7 2548.11 203.235  10
  -6   1  -6 5648.47 390.306  10
  -6   1  -6 6187.50 424.664  17
  -6   1  -6 5823.12 382.768  19
  -6   1  -5 4495.74 401.898  19
  -6   1  -5 4116.76 384.537  10
  -6   1  -5 3975.09 401.364  17
  -6   1  -4 38236.7 1241.36  17
  -6   1  -4 38004.7 1190.57  19
  -6   1  -3 444.679 178.485  19
  -6   1  -3 538.834 244.800  17
  -6   1  -2 3079.44 363.999  17
  -6   1  -2 2948.02 660.718   3
  -6   1  -2 2669.19 333.784  19
  -6   1  -1 23507.1 1797.00   3
  -6   1  -1 23894.0 907.651  18
  -6   1   0 12279.8 1271.42   3
  -6   1   1 75834.6 3091.86   3
  -6   1   2 22797.7 1675.11   3
  -6   1   3 23805.7 1677.78   3
  -6   1   3 22386.0 1458.05   2
  -6   1   4 51980.9 2435.69   3
  -6   1   4 55787.6 2391.13   2
  -6   1   5 43972.6 2195.41   1
  -6   1   5 45886.7 2281.75   2
  -6   1   6 27844.0 976.172   9
  -6   1   6 31190.5 1057.86  18
  -6   1   6 29741.2 1941.65   2
  -6   1   7 30690.2 2082.02   2
  -6   1   9 1541.86 263.278  18
  -6   2  -7 2057.21 224.800  10
  -6   2  -6 21828.3 725.354  19
  -6   2  -6 23025.4 828.323  10
  -6   2  -6 23839.9 851.806  17
  -6   2  -5 10755.1 583.619  19
  -6   2  -5 9929.53 606.705  10
  -6   2  -5 9906.97 626.340  17
  -6   2  -4 4027.06 434.988  17
  -6   2  -3 12567.7 727.511  17
  -6   2  -3 13164.1 1387.05   3
  -6   2  -2 6722.24 1021.79   3
  -6   2  -2 6932.77 530.193  17
  -6   2  -1 20823.8 854.241  18
  -6   2  -1 16945.1 1549.17   3
  -6   2   0 779.983 368.741   3
  -6   2   1-319.846 266.234   3
  -6   2   2-43.5250 216.184   3
  -6   2   3 1949.07 475.921   2
  -6   2   3 1223.70 470.277   3
  -6   2   4 3713.18 633.257   2
  -6   2   4 3688.89 644.735   3
  -6   2   5 3872.23 694.588   2
  -6   2   6 1241.82 433.442   2
  -6   2   6-41.4209 126.331  18
  -6   2   7 304.691 150.832  18
  -6   3  -8 8770.94 336.045  10
  -6   3  -7 10225.8 497.424  10
  -6   3  -6 37850.5 1084.81  17
  -6   3  -6 38396.9 1111.22  10
  -6   3  -5 22335.7 920.497  17
  -6   3  -4 18802.1 870.654  17
  -6   3  -3 52755.1 1444.08  17
  -6   3  -3 58624.7 3022.59   3
  -6   3  -2 66450.3 3156.31   3
  -6   3  -2 69198.5 1599.64  17
  -6   3  -1 29056.5 2027.48   3
  -6   3  -1 29382.9 1022.77  18
  -6   3   0 21285.1 1668.16   3
  -6   3   1 35322.9 2100.31   3
  -6   3   2 65874.8 2771.65   3
  -6   3   3 106264. 3400.05   2
  -6   3   3 98569.2 3268.42   3
  -6   3   4 56298.6 2581.19   2
  -6   3   5 90157.6 3380.29   2
  -6   3   6 19820.4 1642.95   2
  -6   4  -8 5548.07 298.140  10
  -6   4  -7 3106.32 297.900  10
  -6   4  -6 1160.47 185.427  11
  -6   4  -6 959.293 229.072  10
  -6   4  -6 895.734 200.438  17
  -6   4  -5 5364.06 406.964  11
  -6   4  -5 5018.19 435.892  17
  -6   4  -4 2579.58 307.116  11
  -6   4  -4 2420.50 329.268  17
  -6   4  -3 4762.37 930.977   3
  -6   4  -3 4352.79 376.764  11
  -6   4  -3 4801.69 437.955  17
  -6   4  -2 5989.06 461.385  17
  -6   4  -2 5552.99 924.891   3
  -6   4  -1 446.455 348.569   3
  -6   4  -1 451.710 169.778  18
  -6   4   0 2049.24 278.816  18
  -6   4   0 1600.28 486.577   3
  -6   4   1 1315.79 471.526   3
  -6   4   2 5413.97 790.775   3
  -6   4   2 3818.86 683.735   2
  -6   4   3 8045.45 973.798   2
  -6   4   4 10489.2 1143.30   2
  -6   4   5 745.502 392.276   2
  -6   5  -8 4366.28 268.821  10
  -6   5  -7 3169.42 301.719  10
  -6   5  -7 3060.13 257.313  11
  -6   5  -6 26324.9 841.380  17
  -6   5  -6 25213.8 900.992  10
  -6   5  -6 26082.2 848.495  11
  -6   5  -5 30208.3 984.497  17
  -6   5  -5 30704.5 990.201  11
  -6   5  -4 64955.3 1469.54  11
  -6   5  -4 66991.3 1503.77  17
  -6   5  -3 22083.2 857.557  11
  -6   5  -2 26278.4 2024.38   3
  -6   5  -1 19628.6 1712.87   3
  -6   5   0 28867.2 987.920  18
  -6   5   0 27337.6 1930.41   3
  -6   5   1 20016.0 1587.07   3
  -6   5   2 24402.8 1727.06   2
  -6   5   3 177429. 4733.83   2
  -6   5   4 25462.6 1821.57   2
  -6   6  -8 737.750 118.167  10
  -6   6  -7 1866.17 215.391  11
  -6   6  -7 1833.34 233.600  10
  -6   6  -6 543.894 191.860  10
  -6   6  -6 239.241 114.346  11
  -6   6  -5 4075.06 371.211  11
  -6   6  -4 857.610 204.246  11
  -6   6  -1 1360.63 443.564   3
  -6   6   0 10885.4 1221.44   3
  -6   6   2 3910.72 720.890   2
  -6   7  -8 11001.6 369.554  11
  -6   7  -7 14415.3 522.567  10
  -6   7  -7 13070.4 534.859  11
  -6   7  -6 14145.8 606.336  10
  -6   7  -6 13768.3 624.874  11
  -6   7  -5 17437.2 753.534  11
  -6   7  -4 23168.9 897.886  11
  -6   8  -8 2993.33 190.143  11
  -6   8  -7 226.047 103.265  11
  -6   8  -6 2543.79 274.233  11
  -6   8  -5 1601.38 247.992  11
  -6   8  -4 18938.0 801.236  11
  -6   9  -7 11983.3 454.316  11
  -6   9  -6 6219.96 388.782  11
  -6   9  -5 25143.4 837.003  11
  -6   9  -4 14265.3 668.599  11
  -6  10  -7 2876.73 197.366  11
  -6  10  -6 96.1215 88.6606  11
  -6  10  -5 3133.93 279.234  11
  -6  10  -4 19725.9 721.522  11
  -6  11  -6 9674.42 344.538  11
  -6  11  -5 1803.70 187.218  11
  -6  11  -4 4553.08 307.780  11
  -6  11  -3 9576.54 457.564  11
  -6  12  -4 1977.07 152.313  11
  -6  12  -3 9972.98 350.818  11
  -6  12  -2 11044.1 372.106  11
  -5 -11   5 8689.65 365.629   7
  -5 -11   6 1888.99 212.349   7
  -5 -11   7 7597.87 408.705   7
  -5 -11   8 1440.11 193.112   7
  -5 -11   9 740.393 127.031   7
  -5 -10   3 197.573 101.602   7
  -5 -10   3 525.160 131.094  13
  -5 -10   4 873.170 168.435  13
  -5 -10   4 596.520 163.526   7
  -5 -10   5 2016.72 299.847   7
  -5 -10   5 1965.90 234.700  13
  -5 -10   6 1317.60 268.922   7
  -5 -10   6 1714.61 218.701  13
  -5 -10   7 898.674 246.430   7
  -5 -10   7 430.899 130.088  13
  -5 -10   8 46267.2 1222.76   7
  -5 -10   9 12898.0 600.091   7
  -5 -10  10 1603.06 167.266   9
  -5 -10  10 1573.19 191.667   7
  -5 -10  11 1495.75 139.033   9
  -5  -9   1 19073.0 653.208  13
  -5  -9   2 12801.8 613.020  13
  -5  -9   2 12473.6 594.634   7
  -5  -9   3 20623.0 881.050   7
  -5  -9   3 19759.0 817.279  13
  -5  -9   4 9612.83 661.930  12
  -5  -9   4 9861.51 607.764  13
  -5  -9   4 8978.95 646.372   7
  -5  -9   5 5282.45 505.828  12
  -5  -9   5 5397.51 460.768  13
  -5  -9   5 5635.22 543.324   7
  -5  -9   6 1697.05 320.064  12
  -5  -9   6 1965.01 347.908   7
  -5  -9   7 27413.6 1130.22   7
  -5  -9   8 41453.0 1030.42   9
  -5  -9   8 40074.5 1299.98   7
  -5  -9   9 5001.16 452.501   7
  -5  -9   9 5050.05 378.865   9
  -5  -9  10 3543.13 323.181   7
  -5  -9  10 2986.69 297.870   9
  -5  -9  11 3263.24 226.490   8
  -5  -9  11 3882.79 299.231   9
  -5  -9  12 2644.90 206.587   9
  -5  -8   0 3885.86 350.775  13
  -5  -8   1 1162.56 245.670  13
  -5  -8   1 672.170 209.032   7
  -5  -8   1 1117.11 176.013  16
  -5  -8   2 560.282 225.931  13
  -5  -8   2 389.689 184.072   7
  -5  -8   2 510.649 143.400  19
  -5  -8   3-145.079 196.539  13
  -5  -8   3-263.898 240.495   7
  -5  -8   3-67.0480 251.021  12
  -5  -8   3-52.2464 83.7619  19
  -5  -8   4 3006.83 427.090   7
  -5  -8   4 3566.66 347.745  19
  -5  -8   4 2764.24 431.713  12
  -5  -8   5 3313.85 329.716  19
  -5  -8   5 3484.16 491.468   7
  -5  -8   5 3046.33 449.374  12
  -5  -8   6 4138.44 506.051   7
  -5  -8   6 4935.04 508.672  12
  -5  -8   7 29458.4 987.583   9
  -5  -8   7 29251.4 1238.04   7
  -5  -8   8 26027.4 956.085   9
  -5  -8   8 24863.7 1088.78   7
  -5  -8   9 3922.82 433.475   7
  -5  -8   9 3378.25 313.206   8
  -5  -8  10 5734.19 396.976   8
  -5  -8  11 6979.08 456.453   9
  -5  -8  11 6580.46 399.283   8
  -5  -8  12 12076.3 496.220   9
  -5  -8  12 11818.2 458.815   8
  -5  -7  -1 14596.3 686.382  13
  -5  -7  -1 15168.9 586.704  19
  -5  -7   0 16858.1 709.351  19
  -5  -7   0 15302.5 603.379  16
  -5  -7   0 14875.7 772.478  13
  -5  -7   1 2800.22 397.086  13
  -5  -7   1 2705.00 393.698   7
  -5  -7   1 2628.31 315.687  19
  -5  -7   1 2146.05 265.939  16
  -5  -7   2 16308.9 884.685  13
  -5  -7   2 16313.4 711.512  16
  -5  -7   2 17203.6 957.893  12
  -5  -7   2 16878.3 953.839   7
  -5  -7   2 16026.5 773.531  19
  -5  -7   3 17928.4 762.147  16
  -5  -7   3 18334.4 825.658  19
  -5  -7   3 17470.5 995.411  12
  -5  -7   3 18726.2 1022.12   7
  -5  -7   4 5359.98 582.696   7
  -5  -7   4 6030.63 484.314  19
  -5  -7   4 6048.27 604.159  12
  -5  -7   5 2783.44 450.513   7
  -5  -7   5 2651.64 416.629  12
  -5  -7   6 603.615 313.998   7
  -5  -7   6 420.622 236.462  12
  -5  -7   6 561.041 190.782   9
  -5  -7   7 20590.7 1057.54   7
  -5  -7   8 5289.25 536.073   7
  -5  -7   8 5052.30 417.157   8
  -5  -7   9 19575.8 907.771   7
  -5  -7   9 17849.7 780.204   8
  -5  -7  10 5129.27 434.081   8
  -5  -7  11-55.9397 156.925   8
  -5  -7  12 241.862 131.366   8
  -5  -7  12 129.588 121.242   9
  -5  -7  13 279.383 94.0597   9
  -5  -7  13 18.2880 84.3819   8
  -5  -6  -3 4123.94 278.573  19
  -5  -6  -2 16968.0 682.035  19
  -5  -6  -1 6380.74 482.579  19
  -5  -6  -1 6546.82 539.295  13
  -5  -6   0 8295.78 575.771  19
  -5  -6   0 8466.50 629.997  13
  -5  -6   0 9358.25 687.557   7
  -5  -6   1 8998.21 666.716  13
  -5  -6   1 8783.89 678.185  12
  -5  -6   1 8814.90 606.012  19
  -5  -6   1 8679.84 705.768   7
  -5  -6   2 330.535 179.832  19
  -5  -6   2 662.749 293.303  12
  -5  -6   2 542.392 245.628   7
  -5  -6   3 17082.6 971.999  12
  -5  -6   3 18332.5 850.345  19
  -5  -6   3 18340.0 1023.94   7
  -5  -6   4 5603.51 569.935   7
  -5  -6   4 4544.97 519.542  12
  -5  -6   5 18167.4 974.955  12
  -5  -6   5 18052.8 796.538   9
  -5  -6   5 18912.1 1026.56   7
  -5  -6   6 6301.20 605.655   7
  -5  -6   6 6589.70 568.365  12
  -5  -6   7 703.410 257.639   7
  -5  -6   7 1026.02 201.448   8
  -5  -6   8 41322.2 1388.84   7
  -5  -6   8 38834.8 1190.61   8
  -5  -6   9 29533.8 1067.45   8
  -5  -6  10 19691.3 860.854   8
  -5  -6  11 1901.06 299.586   8
  -5  -6  12 12847.6 585.917   8
  -5  -6  12 12305.7 560.796   9
  -5  -6  13 1209.28 146.400   9
  -5  -6  13 1259.74 164.940   8
  -5  -5  -4 12462.4 502.615  19
  -5  -5  -3 15673.1 689.498  19
  -5  -5  -2 6115.54 504.939  13
  -5  -5  -2 6474.14 506.280  19
  -5  -5  -1 10308.2 703.425  13
  -5  -5  -1 9212.65 629.590  19
  -5  -5   0 23383.1 991.943  19
  -5  -5   0 24063.6 1137.47   7
  -5  -5   0 22947.0 1045.31  13
  -5  -5   1 746.961 255.701   7
  -5  -5   1 618.039 244.227  12
  -5  -5   1 377.660 143.536  19
  -5  -5   2 206.020 121.957   7
  -5  -5   2 241.768 214.857  12
  -5  -5   2 114.834 159.282  19
  -5  -5   3 18030.8 980.613   7
  -5  -5   3 17505.1 948.753  12
  -5  -5   4 616.256 262.752   7
  -5  -5   4 535.409 211.303  12
  -5  -5   5 7465.86 514.439   9
  -5  -5   5 7642.88 653.803   7
  -5  -5   5 6570.56 570.552  12
  -5  -5   6 1987.14 359.897   7
  -5  -5   6 2678.67 308.128   8
  -5  -5   7 212.443 149.598   7
  -5  -5   7 442.323 131.898   8
  -5  -5   8 18107.3 844.060   8
  -5  -5   9 5190.76 474.227   8
  -5  -5  10 5413.80 484.572   8
  -5  -5  11 6169.30 485.054   8
  -5  -5  12 2471.86 290.702   8
  -5  -5  12 2712.30 271.933   9
  -5  -5  13 17052.5 524.811   8
  -5  -4  -5 4670.70 312.519  19
  -5  -4  -4 1362.44 234.454  19
  -5  -4  -4 805.161 134.504  15
  -5  -4  -3 6431.60 508.272  19
  -5  -4  -2 22484.2 988.487  13
  -5  -4  -2 24416.5 1020.70  19
  -5  -4  -1 35323.4 1260.38  13
  -5  -4  -1 35180.3 1232.45  19
  -5  -4  -1 37112.3 1390.52   7
  -5  -4   0 17533.3 977.187   7
  -5  -4   0 18059.3 868.346  19
  -5  -4   1 33352.1 1276.21  12
  -5  -4   1 32494.3 1299.93   7
  -5  -4   1 34681.1 1161.00  19
  -5  -4   2 40801.6 1378.80  12
  -5  -4   2 41845.7 2224.79   1
  -5  -4   2 44886.3 1486.95   7
  -5  -4   3 38984.4 2191.46   1
  -5  -4   4 18756.8 1534.97   1
  -5  -4   5 8704.95 1079.14   1
  -5  -4   7 44520.5 1261.26   8
  -5  -4   8 17696.4 841.236   8
  -5  -4   9 51165.7 1439.91   8
  -5  -4  10 62007.0 1565.25   8
  -5  -4  11 27577.2 984.463   8
  -5  -4  11 29038.9 965.494   9
  -5  -4  12 9710.43 458.287   9
  -5  -4  12 9580.98 508.568   8
  -5  -3  -6 7594.02 277.664  15
  -5  -3  -6 8277.31 378.310  19
  -5  -3  -5 1024.51 218.073  19
  -5  -3  -5 985.754 156.186  15
  -5  -3  -4 56.8181 163.787  19
  -5  -3  -4-20.9753 81.3337  17
  -5  -3  -3 5192.48 431.724  17
  -5  -3  -3 5449.51 485.636  13
  -5  -3  -3 5293.04 498.019  19
  -5  -3  -2 10027.3 660.621  13
  -5  -3  -2 10927.0 636.933  17
  -5  -3  -2 11246.4 708.605  19
  -5  -3  -1 4567.57 458.426  13
  -5  -3  -1 5189.97 433.816  17
  -5  -3  -1 5096.83 531.290   7
  -5  -3  -1 4638.14 453.582  19
  -5  -3   0 320.172 151.438  17
  -5  -3   0 116.302 173.964   7
  -5  -3   0 350.347 177.794  19
  -5  -3   0-178.830 188.909   1
  -5  -3   1 4962.66 768.084   1
  -5  -3   2 4995.12 754.910   1
  -5  -3   3 256.348 345.430   1
  -5  -3   4 555.393 284.757   1
  -5  -3   5 98.1051 94.3603   2
  -5  -3   5 814.166 381.585   1
  -5  -3   6 940.529 310.493   2
  -5  -3   7 1158.66 376.833   2
  -5  -3   7 666.899 167.931   8
  -5  -3   8 1967.37 490.388   2
  -5  -3   8 3204.11 365.604   8
  -5  -3   9 2149.36 329.269   8
  -5  -3  10 22332.6 933.634   8
  -5  -3  11 843.102 223.019   8
  -5  -3  11 1013.04 195.319   9
  -5  -3  12-6.31461 122.040   8
  -5  -2  -6 3029.68 297.220  19
  -5  -2  -5 848.474 245.638  19
  -5  -2  -5 884.586 153.208  10
  -5  -2  -5 663.981 174.460  17
  -5  -2  -4 9575.77 596.595  17
  -5  -2  -4 9950.46 657.931  19
  -5  -2  -4 9526.34 535.821  10
  -5  -2  -3 29761.5 1073.67  13
  -5  -2  -3 29451.2 1067.75  17
  -5  -2  -3 27752.9 1106.94  19
  -5  -2  -2 23266.1 998.363  19
  -5  -2  -2 22468.1 914.591  17
  -5  -2  -2 21955.9 923.644  13
  -5  -2  -1 61509.2 1535.21  19
  -5  -2  -1 59898.1 1436.00  17
  -5  -2  -1 59727.0 2569.51   3
  -5  -2  -1 61034.4 1740.02   7
  -5  -2   0 77390.8 2915.73   3
  -5  -2   1 64578.3 2638.15   3
  -5  -2   2 47176.6 2253.54   3
  -5  -2   3 30931.8 1805.27   1
  -5  -2   3 32300.7 1370.85   2
  -5  -2   4 47634.8 2248.39   1
  -5  -2   4 49922.1 1838.19   2
  -5  -2   5 12225.6 1166.28   1
  -5  -2   5 10520.9 918.611   2
  -5  -2   6 862.803 343.820   2
  -5  -2   6 1146.17 421.953   1
  -5  -2   7 73935.9 1599.85   8
  -5  -2   7 75449.8 2919.83   2
  -5  -2   8 67229.6 2939.22   2
  -5  -2   8 65792.2 1574.85   8
  -5  -2   9 8227.99 584.189   8
  -5  -2   9 8922.37 584.937   9
  -5  -2  10 11829.5 667.036   8
  -5  -2  11 28476.2 914.980   8
  -5  -1  -7 552.886 133.361  19
  -5  -1  -6 13682.6 565.754  10
  -5  -1  -6 13606.7 661.425  19
  -5  -1  -5 3091.47 326.969  10
  -5  -1  -5 2960.73 349.094  17
  -5  -1  -5 3219.94 386.941  19
  -5  -1  -4 937.162 267.410  19
  -5  -1  -4 493.999 140.406  10
  -5  -1  -4 507.065 173.428  17
  -5  -1  -3 19.8551 163.263  19
  -5  -1  -3-95.9095 129.074  17
  -5  -1  -2 422.983 119.191  17
  -5  -1  -2 79.7133 177.341   3
  -5  -1  -2 549.587 203.314  19
  -5  -1  -1 1193.04 401.624   3
  -5  -1   0 2294.87 509.295   3
  -5  -1   1 5473.26 755.894   3
  -5  -1   2 50985.0 1727.02   2
  -5  -1   2 47064.1 2166.71   3
  -5  -1   3 15610.2 1251.42   3
  -5  -1   3 16744.4 1048.33   2
  -5  -1   4 5187.11 756.834   1
  -5  -1   4 5509.41 645.426   2
  -5  -1   5 4378.97 710.474   1
  -5  -1   5 3945.60 580.966   2
  -5  -1   6 19995.9 1449.73   1
  -5  -1   6 19613.1 1407.48   2
  -5  -1   7 1192.45 429.792   2
  -5  -1   8 13485.6 685.473   9
  -5  -1   8 12367.2 1303.89   2
  -5  -1   8 12380.2 683.392   8
  -5  -1   9 7344.61 532.175   8
  -5  -1  10 5735.26 450.056   8
  -5   0  -8 5598.77 249.404  15
  -5   0  -7 8289.46 428.936  10
  -5   0  -7 8075.49 456.463  19
  -5   0  -6 20243.9 788.980  10
  -5   0  -6 21534.1 850.341  17
  -5   0  -6 20033.8 843.691  19
  -5   0  -5 40960.9 1270.70  17
  -5   0  -5 40326.4 1206.26  10
  -5   0  -5 39790.1 1273.09  19
  -5   0  -4 10242.3 661.731  17
  -5   0  -4 10115.0 660.065  19
  -5   0  -4 10027.6 618.974  10
  -5   0  -3 53514.6 1448.33  19
  -5   0  -3 55915.6 1470.69  17
  -5   0  -2 56244.5 2547.39   3
  -5   0  -1 40599.7 2103.89   3
  -5   0   0 39618.4 2020.98   3
  -5   0   1 186851. 4250.64   3
  -5   0   2 179567. 4100.83   3
  -5   0   3 13661.1 993.734   2
  -5   0   3 13913.8 1144.19   3
  -5   0   4 43601.5 1852.11   2
  -5   0   5 45588.7 2049.48   2
  -5   0   5 45424.1 2033.08   1
  -5   0   6 316.307 271.031   1
  -5   0   6 467.902 264.118   2
  -5   0   7 2675.95 588.671   2
  -5   0   7 3024.46 326.311   8
  -5   0   8 18539.2 806.309   8
  -5   0   8 19524.3 1651.99   2
  -5   0   9 19837.2 826.412   8
  -5   1  -8 2031.09 196.988  10
  -5   1  -7 195.918 118.042  19
  -5   1  -7 209.914 141.101  10
  -5   1  -6 383.382 190.510  17
  -5   1  -6 413.341 193.263  10
  -5   1  -6 589.158 215.346  19
  -5   1  -5-97.7054 177.311  10
  -5   1  -5 41.1401 157.419  17
  -5   1  -5-127.997 158.644  19
  -5   1  -4 23042.6 958.149  19
  -5   1  -4 23531.5 983.340  17
  -5   1  -3 6982.90 510.490  19
  -5   1  -3 7023.21 956.658   3
  -5   1  -3 8057.60 557.126  17
  -5   1  -2 17722.2 1446.26   3
  -5   1  -1 5142.23 777.028   3
  -5   1   0 417.596 258.458   3
  -5   1   1 12310.4 1107.95   3
  -5   1   2 10257.2 988.967   3
  -5   1   3 6975.68 805.516   3
  -5   1   3 7307.89 765.633   2
  -5   1   4 44989.8 1954.12   2
  -5   1   4 45653.6 1986.66   3
  -5   1   5 26772.7 1616.75   2
  -5   1   5 27715.2 1522.97   1
  -5   1   6 2891.76 591.488   2
  -5   1   7 12841.9 1300.26   2
  -5   1   8 60632.7 2936.18   2
  -5   2  -8 13368.7 543.059  10
  -5   2  -7 16238.5 683.123  19
  -5   2  -7 16096.2 718.274  10
  -5   2  -6 23094.5 952.744  17
  -5   2  -6 22238.4 810.722  11
  -5   2  -6 23723.2 918.767  19
  -5   2  -6 22896.3 936.057  10
  -5   2  -5 1770.25 286.697  19
  -5   2  -5 1185.17 264.270  17
  -5   2  -4 5506.08 879.164   3
  -5   2  -4 4583.16 429.788  17
  -5   2  -4 4570.87 417.445  19
  -5   2  -3 54687.2 2641.75   3
  -5   2  -3 54158.2 1395.83  17
  -5   2  -2 28534.7 1842.56   3
  -5   2  -1 47933.1 2287.86   3
  -5   2   0 37197.9 1926.89   3
  -5   2   1 67995.4 2502.05   3
  -5   2   2 23369.2 1431.51   3
  -5   2   3 63017.3 2318.24   3
  -5   2   3 67715.2 2361.52   2
  -5   2   4 8037.36 876.630   2
  -5   2   4 7995.18 816.639   3
  -5   2   5 7931.93 930.530   2
  -5   2   6 23099.6 1667.89   2
  -5   2   7 2154.99 646.986   2
  -5   3  -9 4476.13 253.027  10
  -5   3  -8 382.507 156.566  10
  -5   3  -7 210.621 181.831  10
  -5   3  -7 59.5740 108.997  11
  -5   3  -7-54.8045 134.592  17
  -5   3  -6 5632.14 481.520  17
  -5   3  -6 5986.04 451.538  11
  -5   3  -6 4963.05 453.649  10
  -5   3  -5 9044.87 549.902  11
  -5   3  -5 9343.95 620.900  17
  -5   3  -4 5669.99 471.775  17
  -5   3  -4 5697.53 902.507   3
  -5   3  -4 6303.79 455.343  11
  -5   3  -3 41677.3 2347.82   3
  -5   3  -2 15445.1 1384.51   3
  -5   3  -1 6181.97 859.207   3
  -5   3   0 19489.4 1406.65   3
  -5   3   1 1989.83 488.520   3
  -5   3   2 33155.5 1689.64   3
  -5   3   3 57346.3 2143.57   3
  -5   3   3 55138.8 2238.89   2
  -5   3   4 100809. 3159.29   2
  -5   3   5 17139.2 1401.15   2
  -5   3   6 25342.4 1790.61   2
  -5   4  -9 1211.10 162.818  10
  -5   4  -8 25972.0 830.297  10
  -5   4  -8 26870.4 774.974  11
  -5   4  -7 25982.3 894.790  11
  -5   4  -7 29028.7 959.411  17
  -5   4  -7 27058.4 967.617  10
  -5   4  -6 32412.3 1062.65  11
  -5   4  -6 31501.5 1099.77  10
  -5   4  -6 32911.3 1086.68  17
  -5   4  -5 56.1284 109.410  11
  -5   4  -5 176.382 150.778  17
  -5   4  -4 271.098 141.072  11
  -5   4  -4 79.7144 133.640  17
  -5   4  -3 42021.9 2385.72   3
  -5   4  -2 13634.3 1327.47   3
  -5   4  -1 63036.9 2668.26   3
  -5   4   0 9179.05 995.330   3
  -5   4   1 6074.42 780.050   3
  -5   4   2 289.901 193.908   3
  -5   4   3 1726.84 463.471   2
  -5   4   4 5916.71 836.645   2
  -5   4   5 10277.5 1114.67   2
  -5   4   6-1069.48 399.980   2
  -5   5  -9 2290.23 202.960  10
  -5   5  -9 2314.88 191.465  11
  -5   5  -8 2816.02 276.886  11
  -5   5  -8 2900.75 299.691  10
  -5   5  -7 21663.1 835.765  11
  -5   5  -7 21033.9 837.402  10
  -5   5  -6 4618.57 438.434  10
  -5   5  -6 5071.13 435.698  11
  -5   5  -6 4704.21 404.825  17
  -5   5  -5 53532.5 1383.44  11
  -5   5  -5 53661.9 1343.83  17
  -5   5  -4 44916.0 1240.32  11
  -5   5  -4 50224.2 2776.04   3
  -5   5  -3 20843.5 1717.72   3
  -5   5  -2 26496.0 1859.85   3
  -5   5  -1 42144.0 2229.63   3
  -5   5   0 37570.6 2024.50   3
  -5   5   1 52865.0 2248.27   3
  -5   5   2 89107.3 3007.40   2
  -5   5   3 71264.1 2768.29   2
  -5   5   4 31083.6 1889.83   2
  -5   5   5 50695.2 2501.58   2
  -5   6  -9 9225.23 388.033  11
  -5   6  -9 8725.38 351.960  10
  -5   6  -8 15722.9 638.669  11
  -5   6  -8 15583.9 611.827  10
  -5   6  -7 5374.31 429.077  11
  -5   6  -7 5513.56 423.673  10
  -5   6  -6 8982.90 574.074  11
  -5   6  -6 9727.57 591.338  10
  -5   6  -5 36029.2 1153.87  11
  -5   6  -4 23876.4 1946.33   3
  -5   6  -2 13719.7 1390.91   3
  -5   6  -1 4809.13 826.258   3
  -5   6   0 12226.8 1159.43   3
  -5   6   2 1979.79 459.445   2
  -5   6   3 3272.37 625.713   2
  -5   7  -9 1745.26 179.560  11
  -5   7  -8 8099.15 457.214  11
  -5   7  -8 8632.83 412.182  10
  -5   7  -7 10061.5 568.940  11
  -5   7  -7 9618.92 510.871  10
  -5   7  -6 24665.7 942.021  11
  -5   7  -6 24851.4 870.475  10
  -5   7  -5 22757.9 919.175  11
  -5   7  -3 30514.8 2175.30   3
  -5   7  -2 32116.3 2125.78   3
  -5   7  -1 30896.2 1973.04   3
  -5   7   1 66236.3 2716.09   2
  -5   8  -9 1932.43 177.960  11
  -5   8  -8 5664.78 372.724  11
  -5   8  -7 2583.33 301.012  11
  -5   8  -6 2797.32 330.528  11
  -5   8  -5 188.767 153.980  11
  -5   9  -9 7394.16 294.042  11
  -5   9  -8 8393.91 417.964  11
  -5   9  -7 16198.9 660.507  11
  -5   9  -6 13916.6 665.767  11
  -5   9  -5 10383.0 600.386  11
  -5  10  -8 162.440 94.4996  11
  -5  10  -7 209.289 118.784  11
  -5  10  -6 121.774 137.670  11
  -5  10  -5 7586.26 489.048  11
  -5  11  -7 10619.4 406.284  11
  -5  11  -6 17333.0 590.219  11
  -5  11  -5 10155.7 491.734  11
  -5  11  -4 17646.4 674.363  11
  -5  12  -6 443.293 84.6537  11
  -5  12  -5 4135.03 251.834  11
  -5  12  -4 1332.33 160.567  11
  -5  12  -3 10004.1 417.973  11
  -4 -12   7 3726.53 251.221   7
  -4 -12   8 4948.06 277.057   7
  -4 -11   4 13354.4 537.722   7
  -4 -11   5 5520.79 413.680  12
  -4 -11   5 5368.86 395.759   7
  -4 -11   6 3067.03 346.731   7
  -4 -11   6 3227.75 326.232  12
  -4 -11   7 2605.85 314.420   7
  -4 -11   8 5817.46 437.951   7
  -4 -11   9 2703.12 277.131   7
  -4 -11  10 461.915 113.613   7
  -4 -10   2 641.675 168.525  13
  -4 -10   3-64.4312 114.955  13
  -4 -10   3-73.3205 154.437   7
  -4 -10   3 72.1395 185.182  12
  -4 -10   4 2588.12 368.416   7
  -4 -10   4 2613.68 378.970  12
  -4 -10   4 2820.56 303.837  13
  -4 -10   5 5229.72 404.725  13
  -4 -10   5 5127.40 479.499  12
  -4 -10   5 5650.33 527.953   7
  -4 -10   6 909.062 178.621  13
  -4 -10   6 1067.89 298.926   7
  -4 -10   6 1203.90 274.884  12
  -4 -10   7 1070.10 242.657  12
  -4 -10   7 1004.83 285.943   7
  -4 -10   8 32.8714 189.350   7
  -4 -10   9 379.727 185.739   7
  -4 -10   9 593.434 160.821   9
  -4 -10  10 589.879 160.331   7
  -4 -10  11 3600.20 264.658   9
  -4 -10  12 869.975 113.292   9
  -4  -9   0 4781.22 309.945  16
  -4  -9   1 11741.4 639.298  13
  -4  -9   1 12054.9 557.304  16
  -4  -9   1 12384.3 657.205  12
  -4  -9   2 3799.21 416.159  13
  -4  -9   2 3657.17 409.533   7
  -4  -9   2 3774.57 357.285  16
  -4  -9   2 3468.38 407.953  12
  -4  -9   3 7025.97 504.096  16
  -4  -9   3 6098.06 507.205  13
  -4  -9   3 6888.71 609.551  12
  -4  -9   3 6505.04 569.004   7
  -4  -9   4 29000.9 1205.32  12
  -4  -9   4 29736.7 1103.12  13
  -4  -9   4 31288.6 1257.33   7
  -4  -9   5 41770.0 1447.59  12
  -4  -9   5 44827.9 1535.84   7
  -4  -9   6 30725.0 1282.94   7
  -4  -9   6 30195.4 1190.42  12
  -4  -9   7 1985.12 325.484  12
  -4  -9   7 2009.60 393.325   7
  -4  -9   8 9075.92 678.172   7
  -4  -9   9 7687.77 455.807   8
  -4  -9   9 7452.62 575.716   7
  -4  -9  10 11713.0 635.396   7
  -4  -9  10 11353.3 538.647   8
  -4  -9  11 1692.57 217.945   8
  -4  -9  12 47.1847 79.0977   8
  -4  -8  -1 77.2700 105.368  16
  -4  -8   0 1378.59 269.170  13
  -4  -8   0 1374.73 226.361  16
  -4  -8   0 1346.80 243.165   7
  -4  -8   1 2672.16 388.357  13
  -4  -8   1 3458.79 431.579  12
  -4  -8   1 3356.75 409.552   7
  -4  -8   1 3033.66 331.537  16
  -4  -8   2 683.136 252.754  13
  -4  -8   2 704.684 258.826   7
  -4  -8   2 681.803 292.932  12
  -4  -8   2 802.051 207.034  16
  -4  -8   3 1159.67 329.816   7
  -4  -8   3 705.794 295.313  12
  -4  -8   3 1350.86 257.297  16
  -4  -8   4 17104.5 985.750  12
  -4  -8   4 18900.6 856.174  16
  -4  -8   4 19492.7 1057.55   7
  -4  -8   5 54.2162 183.583  12
  -4  -8   5-274.931 228.939   7
  -4  -8   6 1892.26 345.212  12
  -4  -8   6 2068.57 397.143   7
  -4  -8   7 11162.1 712.779  12
  -4  -8   7 10248.9 775.038   7
  -4  -8   8 162.288 206.319   7
  -4  -8   8 40.6855 135.290   8
  -4  -8   9 4138.70 459.054   7
  -4  -8   9 3872.56 371.028   8
  -4  -8  10 1399.57 263.713   7
  -4  -8  10 1072.89 235.496   8
  -4  -8  11 12417.2 606.337   8
  -4  -8  12 9134.50 457.496   8
  -4  -8  13 11144.9 382.248   9
  -4  -8  13 11786.1 401.496   8
  -4  -7  -2 4072.56 319.572  19
  -4  -7  -2 3753.87 311.788  16
  -4  -7  -1 32139.4 1180.95  13
  -4  -7  -1 31376.6 988.278  16
  -4  -7  -1 32932.5 999.043  19
  -4  -7   0 17587.2 914.310  13
  -4  -7   0 16969.5 877.311   7
  -4  -7   0 17351.8 776.200  19
  -4  -7   0 18566.8 927.458  12
  -4  -7   0 16904.5 775.803  16
  -4  -7   1 23892.4 1075.47  13
  -4  -7   1 22430.5 915.076  16
  -4  -7   1 24662.2 1132.98  12
  -4  -7   1 23932.3 932.463  19
  -4  -7   1 24057.3 1112.17   7
  -4  -7   2 35862.3 1394.16  12
  -4  -7   2 32783.3 1105.35  16
  -4  -7   2 35307.4 1123.13  19
  -4  -7   2 35690.5 1392.26   7
  -4  -7   3 19637.0 1034.98  12
  -4  -7   3 20970.6 884.104  16
  -4  -7   3 22615.5 889.460  19
  -4  -7   3 20516.9 1065.63   7
  -4  -7   4 2922.98 441.032  12
  -4  -7   4 3098.92 358.100  16
  -4  -7   4 3403.75 465.525   7
  -4  -7   5 15734.5 902.056  12
  -4  -7   5 16205.9 946.356   7
  -4  -7   6 334286. 4237.05   7
  -4  -7   6 337072. 3989.85  12
  -4  -7   6 327693. 7102.54   5
  -4  -7   7 74795.4 1581.65   8
  -4  -7   7 74271.3 1970.49   7
  -4  -7   8 1151.67 307.740   7
  -4  -7   8 1270.83 242.321   8
  -4  -7   9 5865.18 533.437   7
  -4  -7   9 5050.93 460.058   8
  -4  -7  10 7843.72 567.753   8
  -4  -7  11 8994.19 567.039   8
  -4  -7  12 5815.63 405.166   8
  -4  -7  13 11112.4 401.226   9
  -4  -7  13 10950.4 427.103   8
  -4  -6  -4 1147.92 162.102  19
  -4  -6  -3 48.6327 86.0920  16
  -4  -6  -3 69.6397 114.810  19
  -4  -6  -2 266.082 213.729  13
  -4  -6  -2 81.3142 115.900  19
  -4  -6  -2 143.959 134.515  16
  -4  -6  -1 2508.89 332.176  19
  -4  -6  -1 2112.97 371.062  13
  -4  -6  -1 1975.91 319.364  12
  -4  -6  -1 2286.49 337.614   7
  -4  -6  -1 2557.13 312.785  16
  -4  -6   0 2413.16 326.946  19
  -4  -6   0 2142.35 349.391  13
  -4  -6   0 2342.05 366.670   7
  -4  -6   0 1783.35 335.697  12
  -4  -6   0 2017.78 282.286  16
  -4  -6   1 14617.6 749.096  19
  -4  -6   1 13872.7 700.274  16
  -4  -6   1 15589.4 908.147  12
  -4  -6   1 14807.3 880.640   7
  -4  -6   2 318.451 198.516   7
  -4  -6   2 627.712 164.307  19
  -4  -6   2 393.605 119.465  16
  -4  -6   3 464.025 136.911  16
  -4  -6   3 858.210 264.290   7
  -4  -6   3 428.043 198.819  12
  -4  -6   4 1716.87 291.377   7
  -4  -6   4 2209.68 291.244  16
  -4  -6   5 7630.62 605.104  12
  -4  -6   5 8436.85 1069.60   5
  -4  -6   5 7137.10 617.952   7
  -4  -6   6 8708.55 623.861  12
  -4  -6   6 9441.22 694.292   7
  -4  -6   7 2543.92 384.263   7
  -4  -6   7 2945.48 327.143   8
  -4  -6   8 2092.65 328.822   7
  -4  -6   8 2226.70 315.005   8
  -4  -6   9 3670.76 413.193   8
  -4  -6  10 17703.2 855.475   8
  -4  -6  11 7860.44 551.283   8
  -4  -6  12 7837.80 486.486   8
  -4  -6  13 5840.70 329.197   8
  -4  -6  13 5010.25 264.979   9
  -4  -5  -5 17575.2 600.522  19
  -4  -5  -4 20748.5 652.244  15
  -4  -5  -4 21103.2 806.133  19
  -4  -5  -3 14195.9 796.301  13
  -4  -5  -3 13883.5 592.648  15
  -4  -5  -3 13738.9 729.127  19
  -4  -5  -2 30499.3 1200.19  13
  -4  -5  -2 30033.3 1110.32  19
  -4  -5  -1 34822.8 1198.88  19
  -4  -5  -1 35785.8 1267.83  12
  -4  -5  -1 34909.5 1300.45   7
  -4  -5  -1 34929.8 1280.59  13
  -4  -5   0 6049.44 543.514  13
  -4  -5   0 5118.37 494.343  12
  -4  -5   0 5816.21 479.099  19
  -4  -5   0 7362.41 897.383   4
  -4  -5   0 5809.70 560.163   7
  -4  -5   1 6079.93 543.072  12
  -4  -5   1 6084.18 469.967  19
  -4  -5   1 5697.25 810.924   4
  -4  -5   1 5647.26 549.044   7
  -4  -5   5 36157.0 2026.33   5
  -4  -5   6 17612.1 1416.17   5
  -4  -5   7 37732.8 1153.69   8
  -4  -5   8 57652.9 1505.91   8
  -4  -5   9 2055.63 315.384   8
  -4  -5  10 109.099 205.992   8
  -4  -5  11 118.547 162.501   8
  -4  -5  12 9104.80 516.044   8
  -4  -5  13 882.445 150.027   8
  -4  -4  -6-81.6837 74.5176  15
  -4  -4  -6-35.5142 81.6000  19
  -4  -4  -5 109.339 100.693  15
  -4  -4  -5 128.046 127.626  19
  -4  -4  -4 6078.17 434.432   6
  -4  -4  -4 6551.03 519.530  19
  -4  -4  -3 513.389 185.047  13
  -4  -4  -3 397.612 149.212   6
  -4  -4  -3 427.347 202.774  19
  -4  -4  -2 961.552 241.834  13
  -4  -4  -2 1049.42 213.248   6
  -4  -4  -2 745.126 216.827  19
  -4  -4  -1 19196.3 907.836  13
  -4  -4  -1 18179.1 891.589  12
  -4  -4  -1 18471.9 854.447  19
  -4  -4  -1 16240.9 1336.40   4
  -4  -4  -1 18040.3 930.557   7
  -4  -4   0 37.1879 164.282   4
  -4  -4   1 1043.45 315.956   1
  -4  -4   1 681.962 284.344   4
  -4  -4   2 22767.8 1467.38   1
  -4  -4   3 33677.7 1817.60   1
  -4  -4   4 23900.1 1564.76   1
  -4  -4   5-62.3598 193.769   5
  -4  -4   6 35276.3 1631.35   2
  -4  -4   7 30724.7 1696.17   2
  -4  -4   8 39447.3 2073.96   2
  -4  -4   8 39083.1 1224.97   8
  -4  -4   9 3883.73 706.174   2
  -4  -4   9 4963.17 462.818   8
  -4  -4  10 8950.74 617.459   8
  -4  -4  11 29900.7 1030.92   8
  -4  -4  12 830.699 184.270   8
  -4  -3  -7 2977.55 203.718  15
  -4  -3  -6 12860.7 531.659  15
  -4  -3  -6 12614.6 615.796  19
  -4  -3  -5 25878.9 855.146   6
  -4  -3  -5 26510.1 1020.39  19
  -4  -3  -4 30153.1 1013.26  17
  -4  -3  -4 29536.7 1134.19  19
  -4  -3  -4 28672.9 988.165   6
  -4  -3  -3 33328.6 1206.92  13
  -4  -3  -3 33453.7 1091.03  17
  -4  -3  -3 35581.2 1240.00  19
  -4  -3  -2 50342.0 1434.69  13
  -4  -3  -2 50466.9 1299.04  17
  -4  -3  -2 53292.8 1460.28  19
  -4  -3  -2 51940.1 1551.05   7
  -4  -3  -1 17913.5 1262.09   4
  -4  -3   0 8232.36 839.795   1
  -4  -3   0 8808.27 834.922   4
  -4  -3   1 93004.2 2836.15   1
  -4  -3   2 1321.19 381.185   1
  -4  -3   3 32.4673 265.207   1
  -4  -3   4 35792.5 1359.32   2
  -4  -3   4 36112.9 1840.51   1
  -4  -3   5 27036.8 1629.95   1
  -4  -3   5 29663.8 1409.22   5
  -4  -3   5 30381.4 1429.04   2
  -4  -3   6 3381.12 524.126   2
  -4  -3   7 1157.60 398.449   2
  -4  -3   8 17286.7 1433.56   2
  -4  -3   8 15783.2 764.670   8
  -4  -3   9 9770.68 626.132   8
  -4  -3   9 7914.59 1004.84   2
  -4  -3  10 9452.86 613.965   8
  -4  -3  11 11560.6 625.340   8
  -4  -3  12 20336.2 674.281   8
  -4  -2  -8 61.1479 57.7686  15
  -4  -2  -7 401.092 144.240  19
  -4  -2  -6 124.174 95.8784  10
  -4  -2  -6 311.877 196.726  19
  -4  -2  -5 33.8049 105.710  10
  -4  -2  -5 7.05178 114.059  17
  -4  -2  -5 87.6006 163.022  19
  -4  -2  -4 6319.80 515.522  13
  -4  -2  -4 6378.53 502.628  17
  -4  -2  -4 5813.49 443.654  10
  -4  -2  -4 6290.91 544.964  19
  -4  -2  -3 21146.1 914.319  13
  -4  -2  -3 19769.5 904.472  19
  -4  -2  -3 21267.4 876.208  17
  -4  -2  -1 25700.0 1470.08   3
  -4  -2  -1 24374.1 1299.98   4
  -4  -2   0 77654.6 2521.09   3
  -4  -2   0 77254.1 2193.96   4
  -4  -2   1 22758.7 1359.61   3
  -4  -2   2 3233.61 355.482   2
  -4  -2   2 3356.00 536.899   3
  -4  -2   3 5604.13 520.300   2
  -4  -2   3 4859.38 649.049   1
  -4  -2   4 92801.3 2320.57   2
  -4  -2   4 95189.1 2805.54   1
  -4  -2   5 88595.8 2766.38   1
  -4  -2   5 87856.6 2500.34   2
  -4  -2   6 85551.2 2721.77   2
  -4  -2   7 78173.0 2858.03   2
  -4  -2   8 50544.6 2488.77   2
  -4  -2   8 47980.6 1296.42   8
  -4  -2   9 28288.8 1956.39   2
  -4  -2   9 25734.4 988.670   8
  -4  -2  10 32495.6 1072.43   8
  -4  -2  11 37828.4 1027.39   8
  -4  -1  -8 7069.68 342.119  15
  -4  -1  -7 17484.2 663.800  10
  -4  -1  -7 19016.4 796.555  19
  -4  -1  -6 3058.75 333.887  10
  -4  -1  -6 3662.47 417.127  19
  -4  -1  -6 3673.84 380.654  17
  -4  -1  -5 11018.4 666.466  17
  -4  -1  -5 9732.22 665.880  19
  -4  -1  -5 10223.8 606.736  10
  -4  -1  -4 36000.3 1229.13  19
  -4  -1  -4 36888.9 1129.66  10
  -4  -1  -4 38741.8 1220.13  17
  -4  -1  -2 7014.33 806.113   3
  -4  -1  -1 30216.5 1233.95   4
  -4  -1  -1 29035.4 1557.11   3
  -4  -1   0 42728.8 1817.89   3
  -4  -1   1 11775.4 956.317   3
  -4  -1   2 37568.5 1665.64   3
  -4  -1   2 38459.8 1307.55   2
  -4  -1   3 6453.15 711.553   3
  -4  -1   3 6445.02 584.071   2
  -4  -1   4 5171.22 635.517   1
  -4  -1   4 5102.16 577.927   2
  -4  -1   5 3661.82 545.551   2
  -4  -1   5 4087.51 598.260   1
  -4  -1   6 29530.7 1641.95   2
  -4  -1   7 14491.6 1281.29   2
  -4  -1   8 1428.53 448.395   2
  -4  -1   8 313.812 158.589   8
  -4  -1   9 1425.66 496.480   2
  -4  -1   9 361.364 146.916   8
  -4  -1  10 2881.58 313.261   8
  -4   0  -9 600.191 96.0306  15
  -4   0  -8 2422.13 248.885  10
  -4   0  -7 4089.24 376.478  10
  -4   0  -7 3765.89 395.937  19
  -4   0  -6 20823.0 906.738  17
  -4   0  -6 20641.8 932.731  19
  -4   0  -6 19287.4 849.508  10
  -4   0  -5 14103.0 767.191  17
  -4   0  -5 14791.9 760.823  10
  -4   0  -5 13391.2 763.288  19
  -4   0  -4 8915.43 598.841  19
  -4   0  -4 8873.56 579.156  17
  -4   0  -3 28079.3 1610.27   3
  -4   0  -2 83195.7 2687.26   3
  -4   0  -1 49534.8 2001.79   3
  -4   0   0 85051.4 2511.62   3
  -4   0   1 103512. 2704.46   3
  -4   0   2 71051.2 2189.27   3
  -4   0   3 7800.36 678.128   2
  -4   0   3 6152.84 677.713   3
  -4   0   4 2627.66 439.240   1
  -4   0   4 3082.49 472.196   2
  -4   0   5 48024.7 1953.86   2
  -4   0   5 50980.7 1882.30   1
  -4   0   6 153099. 3842.51   2
  -4   0   7 29105.8 1841.76   2
  -4   0   8 31597.2 2048.43   2
  -4   0   8 31985.5 1014.78   8
  -4   1  -9 6138.16 325.792  10
  -4   1  -8 5819.48 365.131  11
  -4   1  -8 6381.24 437.374  10
  -4   1  -7 6660.42 462.754  11
  -4   1  -7 7005.53 522.035  10
  -4   1  -7 7125.94 538.128  17
  -4   1  -7 6824.80 525.051  19
  -4   1  -6 10107.6 597.433  11
  -4   1  -6 9876.97 626.148  10
  -4   1  -6 9642.38 640.378  17
  -4   1  -6 10777.9 680.374  19
  -4   1  -5 30440.7 996.718  11
  -4   1  -5 32539.1 1138.54  17
  -4   1  -5 31706.7 1096.47  10
  -4   1  -5 32417.1 1131.88  19
  -4   1  -4 23815.0 1591.37   3
  -4   1  -4 22681.3 901.390  17
  -4   1  -3 21402.4 1448.60   3
  -4   1  -2 1979.44 431.757   3
  -4   1  -1 10820.7 931.159   3
  -4   1   0 839.730 330.737   3
  -4   1   1 15901.6 1049.62   3
  -4   1   2 16388.5 1046.42   3
  -4   1   3 2804.51 437.789   3
  -4   1   3 3249.25 475.660   2
  -4   1   4 14508.4 946.793   1
  -4   1   4 14505.2 1024.70   2
  -4   1   5 356.366 297.394   2
  -4   1   5 31.9908 160.250   1
  -4   1   6 180.495 206.911   2
  -4   1   7 7619.26 984.590   2
  -4   1   8 36.8898 194.414   2
  -4   2  -9 5375.95 351.992  10
  -4   2  -8 3362.23 317.069  11
  -4   2  -8 3302.50 353.867  10
  -4   2  -7 25616.8 990.778  10
  -4   2  -7 25069.2 934.429  11
  -4   2  -7 26441.2 995.377  19
  -4   2  -7 26371.5 1007.14  17
  -4   2  -6 12444.9 674.642  11
  -4   2  -6 12650.3 712.627  19
  -4   2  -6 12666.6 717.528  10
  -4   2  -6 12599.7 727.132  17
  -4   2  -5 43982.9 2281.34   3
  -4   2  -5 41238.7 1165.25  11
  -4   2  -5 41317.2 1258.95  17
  -4   2  -5 41220.1 1220.90  19
  -4   2  -4 72955.7 2852.55   3
  -4   2  -3 33372.1 1834.83   3
  -4   2  -2 32310.4 1705.50   3
  -4   2  -1 28417.4 1517.55   3
  -4   2   0 426115. 5551.39   3
  -4   2   1 176827. 3398.88   3
  -4   2   2 40551.5 1594.10   3
  -4   2   3 92857.7 2343.14   3
  -4   2   3 93227.9 2482.73   2
  -4   2   4 37549.3 1447.57   1
  -4   2   4 33430.4 1613.86   2
  -4   2   5 2710.49 544.044   2
  -4   2   6 32979.7 1890.52   2
  -4   2   7 34122.6 2063.17   2
  -4   3 -10 3421.45 213.899  10
  -4   3  -9 5092.53 345.121  11
  -4   3  -9 4636.50 358.676  10
  -4   3  -8 4138.60 372.790  11
  -4   3  -8 4447.71 412.532  10
  -4   3  -7 5253.57 462.653  17
  -4   3  -7 4742.93 427.251  11
  -4   3  -7 4107.02 427.356  10
  -4   3  -7 5198.40 438.184  19
  -4   3  -6 3707.94 377.201  11
  -4   3  -6 3172.44 376.348  17
  -4   3  -6 4021.67 427.152  10
  -4   3  -5 72342.4 1545.97  11
  -4   3  -5 69314.1 1591.96  17
  -4   3   0 314.631 244.048   3
  -4   3   1 29353.8 1427.11   3
  -4   3   2 3488.96 496.720   3
  -4   3   3 3278.58 517.578   2
  -4   3   3 2844.39 402.153   3
  -4   3   4 11433.1 986.965   2
  -4   3   5 3454.96 604.337   2
  -4   3   6 15503.0 1352.70   2
  -4   3   7 9968.02 1173.23   2
  -4   4 -10 5500.93 274.927  11
  -4   4 -10 5195.52 285.358  10
  -4   4  -9 13602.1 595.967  10
  -4   4  -9 13832.1 593.840  11
  -4   4  -8 15323.7 719.783  11
  -4   4  -8 15191.8 729.417  10
  -4   4  -7 22092.9 904.455  11
  -4   4  -7 22303.1 928.173  10
  -4   4  -7 23206.4 918.260  17
  -4   4  -6 39.1020 134.359  11
  -4   4  -6-12.7210 123.481  17
  -4   4  -5 6601.58 475.019  11
  -4   4  -5 6240.22 477.319  17
  -4   4   0 8368.79 846.286   3
  -4   4   1 46972.5 1811.75   3
  -4   4   2 136331. 2891.40   3
  -4   4   2 127662. 3088.28   2
  -4   4   3 48138.6 1993.91   2
  -4   4   4 33535.0 1767.32   2
  -4   4   5 21875.0 1522.16   2
  -4   4   6 11380.5 1184.15   2
  -4   5 -10-0.36002 78.2569  10
  -4   5 -10-119.737 81.6197  11
  -4   5  -9 859.433 182.824  11
  -4   5  -9 825.336 183.913  10
  -4   5  -8 16.0837 147.576  11
  -4   5  -8 162.599 147.128  10
  -4   5  -7 8797.96 583.933  11
  -4   5  -7 8847.61 556.809  17
  -4   5  -7 9440.28 599.003  10
  -4   5  -6 2901.44 362.188  11
  -4   5  -6 2804.79 326.517  17
  -4   5  -5 1010.47 207.194  11
  -4   5   0 8301.56 851.840   3
  -4   5   1 21096.5 1233.97   3
  -4   5   2 132365. 3303.65   2
  -4   5   3 30796.3 1671.53   2
  -4   5   4 263.066 193.631   2
  -4   6 -10 5055.35 254.399  10
  -4   6 -10 5638.60 319.092  11
  -4   6  -9 19333.8 666.417  10
  -4   6  -9 19396.5 733.138  11
  -4   6  -8 30525.4 1024.44  11
  -4   6  -8 30264.9 958.247  10
  -4   6  -7 18480.0 839.848  11
  -4   6  -7 19121.1 809.142  10
  -4   6  -6 3001.78 355.337  11
  -4   6  -5 117409. 2040.24  11
  -4   6   0 32703.9 1676.98   3
  -4   6   1 4267.76 649.795   2
  -4   6   2 34415.7 1767.05   2
  -4   7 -10 3515.26 251.551  11
  -4   7  -9 1069.72 205.913  11
  -4   7  -9 866.585 150.639  10
  -4   7  -8 1391.54 253.820  11
  -4   7  -8 1440.03 205.559  10
  -4   7  -7 15812.4 684.422  10
  -4   7  -7 14567.4 748.253  11
  -4   7  -6 44442.9 1304.95  11
  -4   8 -10 9682.30 384.190  11
  -4   8  -9 18159.8 665.365  11
  -4   8  -8 2348.13 296.766  11
  -4   8  -7 43566.0 1246.50  11
  -4   8  -6 41000.9 1239.80  11
  -4   9 -10 146.607 69.5345  11
  -4   9  -9 2539.02 246.357  11
  -4   9  -8 5832.32 415.554  11
  -4   9  -7 4012.04 380.029  11
  -4   9  -6 4553.81 418.052  11
  -4  10  -9 3308.79 233.037  11
  -4  10  -8 4662.25 334.137  11
  -4  10  -7 3204.56 316.906  11
  -4  10  -6 1226.01 228.561  11
  -4  11  -8 6422.96 322.739  11
  -4  11  -7 22051.9 678.598  11
  -4  11  -6 6259.75 403.186  11
  -4  11  -5 15026.5 644.641  11
  -4  12  -7 895.092 113.397  11
  -4  12  -6 1019.04 143.421  11
  -4  12  -5 4125.54 282.729  11
  -4  12  -4 154.748 99.3207  11
  -3 -12   4 7173.69 376.352  12
  -3 -12   5 17850.8 621.082  12
  -3 -12   5 17344.6 563.807   7
  -3 -12   6 4943.35 335.081  12
  -3 -12   6 5412.48 367.305   7
  -3 -12   7 440.396 150.746   7
  -3 -12   8 2570.26 265.362   7
  -3 -12   9 12285.8 488.548   7
  -3 -11   2 143.380 127.136  12
  -3 -11   3 152.172 170.053  12
  -3 -11   4 1282.24 240.356   7
  -3 -11   4 825.385 241.599  12
  -3 -11   5 2240.82 315.449   7
  -3 -11   5 2264.77 325.883  12
  -3 -11   6 1017.48 264.082   7
  -3 -11   6 940.613 227.488  12
  -3 -11   7 2477.36 302.147  12
  -3 -11   7 2545.98 358.733   7
  -3 -11   8 4301.18 430.412   7
  -3 -11   9 5483.09 433.413   7
  -3 -11  10 3259.50 297.291   7
  -3 -11  11 4408.07 234.425   9
  -3 -10  -1 2989.43 187.155  16
  -3 -10   0 7246.77 377.147  16
  -3 -10   1 11970.2 555.201  16
  -3 -10   1 12299.4 621.502  12
  -3 -10   2 36995.0 1211.43  12
  -3 -10   2 35158.0 1024.74  16
  -3 -10   2 35664.7 1050.25  13
  -3 -10   2 34210.2 1030.99   7
  -3 -10   3 28143.1 969.649  16
  -3 -10   3 25399.2 914.839  13
  -3 -10   3 29190.3 1153.64  12
  -3 -10   3 27219.2 1042.14   7
  -3 -10   4 17535.3 931.963  12
  -3 -10   4 16026.1 736.719  13
  -3 -10   4 18734.0 933.316   7
  -3 -10   5 9342.47 697.360   7
  -3 -10   5 8381.24 648.630  12
  -3 -10   6 11813.9 788.454   7
  -3 -10   6 11690.8 732.699  12
  -3 -10   7 5716.01 575.769   7
  -3 -10   7 5774.60 486.697  12
  -3 -10   8 2136.51 373.271   7
  -3 -10   9 3694.54 424.620   7
  -3 -10   9 3782.94 300.810   8
  -3 -10  10 4905.93 416.811   7
  -3 -10  10 5078.92 337.521   8
  -3 -10  11 14630.1 535.026   7
  -3 -10  11 13991.5 501.504   8
  -3 -10  12 2825.76 192.201   8
  -3  -9  -2 93.2437 72.3754  16
  -3  -9  -1 13895.5 576.201  16
  -3  -9   0 268.789 161.971  13
  -3  -9   0 217.137 164.414  12
  -3  -9   0 200.578 156.647  16
  -3  -9   1 12828.7 770.858  12
  -3  -9   1 11188.7 681.300  13
  -3  -9   1 11073.1 627.681  16
  -3  -9   1 12702.5 687.529   7
  -3  -9   2 30448.9 1131.49  13
  -3  -9   2 32935.6 1291.80  12
  -3  -9   2 31427.6 1090.35  16
  -3  -9   2 32721.4 1216.07   7
  -3  -9   3 7150.74 653.917  12
  -3  -9   3 7434.69 570.826  13
  -3  -9   3 6820.10 529.427  16
  -3  -9   3 7311.42 624.674   7
  -3  -9   4 2540.26 332.561  13
  -3  -9   4 2391.44 421.559  12
  -3  -9   4 2601.33 404.112   7
  -3  -9   4 3032.72 411.468  16
  -3  -9   5 470.492 231.555   7
  -3  -9   5 1314.92 322.710  12
  -3  -9   6 607.250 232.150  12
  -3  -9   6 475.705 279.179   7
  -3  -9   7 11004.4 801.930   7
  -3  -9   7 12780.8 744.940  12
  -3  -9   8 4048.14 491.828   7
  -3  -9   8 4125.05 363.452   8
  -3  -9   9 16914.6 891.386   7
  -3  -9   9 15901.7 715.834   8
  -3  -9  10 11544.8 670.556   7
  -3  -9  10 10992.7 586.601   8
  -3  -9  11 830.809 190.419   8
  -3  -9  12 7606.60 392.596   8
  -3  -9  13 8641.31 300.547   8
  -3  -8  -3 10341.4 428.214  16
  -3  -8  -2 838.576 180.611  16
  -3  -8  -1 262.743 186.939  13
  -3  -8  -1 316.031 171.608  12
  -3  -8  -1 72.2312 139.723  16
  -3  -8   0 16881.1 880.829  12
  -3  -8   0 15567.6 769.681  16
  -3  -8   0 16208.9 862.080  13
  -3  -8   1 163.890 170.628  16
  -3  -8   1 245.529 204.261  13
  -3  -8   1 553.333 214.965   7
  -3  -8   1 177.474 223.299  12
  -3  -8   2 9557.10 679.569  13
  -3  -8   2 10512.3 775.806  12
  -3  -8   2 9643.17 633.718  16
  -3  -8   2 9980.91 735.670   7
  -3  -8   3 32136.5 1310.85   7
  -3  -8   3 31322.5 1115.96  16
  -3  -8   3 31116.1 1312.14  12
  -3  -8   4 40258.7 1486.24  12
  -3  -8   4 42990.1 1301.71  16
  -3  -8   4 44968.9 1562.08   7
  -3  -8   5 245.578 230.364  12
  -3  -8   5-2.69888 237.197   7
  -3  -8   5-440.498 330.782   5
  -3  -8   6 4665.66 499.503  12
  -3  -8   6 4428.52 515.711   7
  -3  -8   6 3369.82 768.429   5
  -3  -8   7 2511.19 413.688   7
  -3  -8   7 2360.73 289.511   8
  -3  -8   8 617.554 261.451   7
  -3  -8   8 634.810 183.798   8
  -3  -8   9 960.240 278.411   7
  -3  -8   9 1342.78 255.556   8
  -3  -8  10 567.816 202.363   7
  -3  -8  10 450.886 191.288   8
  -3  -8  11 217.093 176.935   8
  -3  -8  12 1249.84 201.881   8
  -3  -8  13 107.762 92.5657   8
  -3  -7  -4 4345.74 291.765  16
  -3  -7  -3 1447.64 225.069  16
  -3  -7  -2 8229.00 629.499  13
  -3  -7  -2 9292.43 523.788  19
  -3  -7  -1 26421.9 1126.90  13
  -3  -7  -1 27065.2 1084.05  12
  -3  -7   0 11500.3 752.780  13
  -3  -7   0 11411.4 758.681  12
  -3  -7   0 11483.6 682.797  16
  -3  -7   0 11673.6 742.956   7
  -3  -7   1 5287.77 507.323  13
  -3  -7   1 5276.29 546.686  12
  -3  -7   1 5644.80 482.644  16
  -3  -7   1 5148.56 835.383   4
  -3  -7   1 5868.55 560.967   7
  -3  -7   2 22187.7 1059.84   7
  -3  -7   2 22698.0 1085.12  12
  -3  -7   2 23585.2 937.452  16
  -3  -7   3 71664.8 1904.37  12
  -3  -7   3 74745.0 1638.45  16
  -3  -7   3 76151.3 1952.80   7
  -3  -7   4 51537.0 1607.30   7
  -3  -7   4 51665.6 1585.20  12
  -3  -7   4 53055.4 2830.78   5
  -3  -7   4 53221.3 1367.87  16
  -3  -7   5 38473.3 1395.53   7
  -3  -7   5 36653.3 2331.68   5
  -3  -7   5 38497.4 1341.58  12
  -3  -7   6 18743.9 976.513   7
  -3  -7   6 17667.7 880.274  12
  -3  -7   6 16155.0 1537.14   5
  -3  -7   7 15750.4 903.558   7
  -3  -7   7 14250.2 1446.63   5
  -3  -7   7 12986.2 692.518   8
  -3  -7   8 13166.3 821.748   7
  -3  -7   8 13466.7 740.996   8
  -3  -7   9 29461.5 1172.57   7
  -3  -7   9 28479.4 1083.48   8
  -3  -7  10 14353.9 772.971   8
  -3  -7  11 10510.5 629.698   8
  -3  -7  12 11276.2 568.998   8
  -3  -7  13 17432.8 541.322   8
  -3  -6  -5 11561.7 458.542  16
  -3  -6  -4 18381.0 711.480  19
  -3  -6  -4 18205.9 629.580  15
  -3  -6  -3 1820.14 235.416  15
  -3  -6  -3 2330.17 298.788  19
  -3  -6  -2 6011.66 567.286  13
  -3  -6  -2 5572.96 472.531  19
  -3  -6  -1 12353.8 764.312  12
  -3  -6  -1 12193.9 684.696  19
  -3  -6  -1 12843.6 794.419  13
  -3  -6  -1 10638.9 1198.07   4
  -3  -6   0 14673.5 829.243   7
  -3  -6   0 14532.8 817.326  13
  -3  -6   0 15352.9 865.077  12
  -3  -6   0 13410.4 690.589  19
  -3  -6   0 14339.9 1352.72   4
  -3  -6   1 23194.2 1045.62  12
  -3  -6   1 24004.7 1682.04   4
  -3  -6   1 22842.8 1027.45   7
  -3  -6   2 2401.01 523.989   4
  -3  -6   3-1333.92 491.647   5
  -3  -6   4 31249.2 1994.49   5
  -3  -6   5 563.983 418.523   5
  -3  -6   6 1679.15 490.909   5
  -3  -6   7 1460.75 268.610   7
  -3  -6   7 1368.95 463.265   5
  -3  -6   7 1589.14 253.096   8
  -3  -6   8 157.762 163.418   7
  -3  -6   8 179.158 167.448   8
  -3  -6   9 4026.31 445.732   8
  -3  -6  10 13616.1 763.294   8
  -3  -6  11 1038.32 264.235   8
  -3  -6  12 2621.78 300.023   8
  -3  -6  13 88.0340 102.526   8
  -3  -5  -6 3812.75 251.682  15
  -3  -5  -5 6640.85 455.834  19
  -3  -5  -5 6416.89 401.709  15
  -3  -5  -4 12331.7 681.024  19
  -3  -5  -4 12008.1 593.427  15
  -3  -5  -4 11675.9 662.646   6
  -3  -5  -3 24412.7 1087.37  13
  -3  -5  -3 22507.3 961.711   6
  -3  -5  -3 23310.8 971.794  19
  -3  -5  -2 4397.20 478.743  13
  -3  -5  -2 4587.92 439.981   6
  -3  -5  -2 3805.62 719.232   4
  -3  -5  -2 4376.63 431.359  19
  -3  -5  -1 6211.52 532.939  13
  -3  -5  -1 6766.80 554.469  12
  -3  -5  -1 5947.03 474.707  19
  -3  -5  -1 7002.03 512.895   6
  -3  -5  -1 5133.96 787.911   4
  -3  -5   0 64816.9 2621.86   4
  -3  -5   1 49154.8 2187.11   4
  -3  -5   2 55878.4 2231.58   4
  -3  -5   3 1522.92 442.825   5
  -3  -5   4 267509. 5198.04   5
  -3  -5   5 386839. 6173.91   5
  -3  -5   6 5644.15 776.040   5
  -3  -5   6 6491.57 652.535   2
  -3  -5   7 26135.3 1654.95   5
  -3  -5   7 28157.4 1545.90   2
  -3  -5   8 31262.2 1097.20   8
  -3  -5   8 31290.5 1789.48   2
  -3  -5   9 38318.9 1260.69   8
  -3  -5   9 41971.0 2232.21   2
  -3  -5  10 14294.7 776.777   8
  -3  -5  11 47931.7 1323.01   8
  -3  -5  12 25625.2 838.867   8
  -3  -5  13 2217.86 190.184   8
  -3  -4  -7 5259.82 285.665  15
  -3  -4  -6 10729.8 510.987  15
  -3  -4  -6 10387.1 527.417   6
  -3  -4  -6 9977.80 565.053  19
  -3  -4  -5 2568.65 308.632   6
  -3  -4  -5 2899.46 361.920  19
  -3  -4  -4 689.116 224.742  19
  -3  -4  -4 107.557 114.932   6
  -3  -4  -3 28210.0 1144.04  13
  -3  -4  -3 27501.8 1044.12   6
  -3  -4  -3 29117.7 1881.02   4
  -3  -4  -3 28961.0 1095.78  19
  -3  -4  -2 15410.1 808.732  13
  -3  -4  -2 14924.6 734.724   6
  -3  -4  -2 15948.1 777.617  19
  -3  -4  -2 14913.9 1283.49   4
  -3  -4  -1 22633.7 1485.50   4
  -3  -4   0 5422.15 591.466   1
  -3  -4   0 4171.60 611.548   4
  -3  -4   1 5.27839 138.125   1
  -3  -4   1-81.5936 179.761   4
  -3  -4   2 3253.71 505.809   1
  -3  -4   2 4087.05 558.096   4
  -3  -4   3 1157.11 372.674   5
  -3  -4   3 1355.99 380.480   1
  -3  -4   4 156879. 3506.15   5
  -3  -4   4 152370. 2442.81   2
  -3  -4   5 1131.30 263.915   2
  -3  -4   5 1017.44 354.134   5
  -3  -4   6-98.6221 164.954   2
  -3  -4   6 202.693 205.957   5
  -3  -4   7-466.556 285.801   2
  -3  -4   8 13981.0 726.890   8
  -3  -4   8 13421.1 1201.92   2
  -3  -4   9 5384.29 815.840   2
  -3  -4   9 3697.82 409.834   8
  -3  -4  10 1545.91 298.731   8
  -3  -4  11 100.866 134.896   8
  -3  -4  12 662.717 173.143   8
  -3  -3  -8 1397.17 144.463  15
  -3  -3  -7 4266.51 367.501  19
  -3  -3  -7 4251.53 323.271   6
  -3  -3  -7 3895.74 311.713  15
  -3  -3  -6 25911.0 1000.72  19
  -3  -3  -6 24223.7 896.026   6
  -3  -3  -5 24531.8 970.033   6
  -3  -3  -5 24171.8 1024.88  19
  -3  -3  -4 23397.3 1020.66  13
  -3  -3  -4 23633.2 909.977  17
  -3  -3  -4 21364.5 915.780   6
  -3  -3  -4 23251.9 998.272  19
  -3  -3  -3 57867.4 1536.40  13
  -3  -3  -3 54520.3 1444.00  19
  -3  -3  -3 53402.5 1370.15   6
  -3  -3  -3 51559.5 2315.28   4
  -3  -3  -2 38453.6 1874.23   4
  -3  -3  -1 14185.6 1042.39   4
  -3  -3  -1 14048.1 930.893   1
  -3  -3   0 14279.8 950.277   1
  -3  -3   0 13958.5 974.898   4
  -3  -3   1 66502.9 2053.06   1
  -3  -3   1 64039.1 1956.06   4
  -3  -3   2 100913. 2553.21   1
  -3  -3   3 105033. 2582.17   5
  -3  -3   3 108643. 2746.74   1
  -3  -3   3 99725.5 1826.30   2
  -3  -3   4 27307.6 1129.25   2
  -3  -3   4 28600.8 1476.74   1
  -3  -3   4 29289.5 1325.37   5
  -3  -3   5 30648.3 1353.55   5
  -3  -3   5 28126.3 1313.50   2
  -3  -3   6 28872.6 1333.32   5
  -3  -3   6 28186.1 1486.42   2
  -3  -3   7 45840.6 2075.72   2
  -3  -3   8 23167.5 1625.96   2
  -3  -3   9 14392.5 748.352   8
  -3  -3   9 15041.6 1416.26   2
  -3  -3  10 13576.1 716.694   8
  -3  -3  11 3163.23 323.836   8
  -3  -2  -8 1050.96 166.494  15
  -3  -2  -7 13695.1 715.152  19
  -3  -2  -7 12768.0 617.187   6
  -3  -2  -7 13476.8 601.639  10
  -3  -2  -6 3181.56 387.740  19
  -3  -2  -6 3582.39 366.776   6
  -3  -2  -6 3355.57 346.279  10
  -3  -2  -5 329.196 192.590  19
  -3  -2  -5 385.379 173.106  17
  -3  -2  -5 788.315 184.407  10
  -3  -2  -4 1572.28 259.746  19
  -3  -2  -4 1347.07 236.781  17
  -3  -2  -4 1471.14 248.370  10
  -3  -2  -4 1433.29 252.555  13
  -3  -2  -3 613.423 284.984   4
  -3  -2  -2 5630.43 657.115   4
  -3  -2  -2 5798.07 588.775   3
  -3  -2  -1 3596.37 463.884   4
  -3  -2  -1 3697.23 497.439   3
  -3  -2   0 321.258 244.904   3
  -3  -2   0 339.837 185.749   4
  -3  -2   1 85226.1 2217.23   3
  -3  -2   1 85112.8 1386.95   2
  -3  -2   1 84187.7 1955.16   4
  -3  -2   2 6518.85 448.369   2
  -3  -2   3 4891.51 497.952   5
  -3  -2   3 4799.31 440.957   2
  -3  -2   3 5087.00 592.980   1
  -3  -2   4 18519.3 893.666   5
  -3  -2   4 18801.0 980.075   2
  -3  -2   4 18901.8 1126.33   1
  -3  -2   5 8503.23 607.440   5
  -3  -2   5 7936.06 734.802   2
  -3  -2   6 3628.97 570.828   2
  -3  -2   7 51454.2 2261.91   2
  -3  -2   8 18673.6 1462.94   2
  -3  -2   9 40001.1 1191.01   8
  -3  -2   9 44779.8 2429.29   2
  -3  -2  10 3737.10 357.135   8
  -3  -1  -9 5398.90 283.799  15
  -3  -1  -8 14426.0 581.375   6
  -3  -1  -8 13375.6 587.357  10
  -3  -1  -8 14816.7 693.120  19
  -3  -1  -7 14818.5 675.589  11
  -3  -1  -7 16125.0 730.522   6
  -3  -1  -7 15062.7 715.277  10
  -3  -1  -7 14477.3 788.098  19
  -3  -1  -6 25729.9 941.911  11
  -3  -1  -6 25845.7 1074.42  19
  -3  -1  -6 27235.7 1027.75  17
  -3  -1  -6 27380.9 1006.96  10
  -3  -1  -5 25900.7 997.549  17
  -3  -1  -5 25174.0 949.084  10
  -3  -1  -5 26719.1 1056.18  19
  -3  -1  -3 85351.3 2386.32   3
  -3  -1  -3 81039.3 2305.15   4
  -3  -1  -2 21833.5 1169.14   3
  -3  -1  -2 20809.7 1060.53   4
  -3  -1  -1 120905. 2628.84   3
  -3  -1  -1 114254. 2222.08   4
  -3  -1   0 105574. 2387.82   3
  -3  -1   0 107069. 1949.49   4
  -3  -1   1 254.705 209.889   3
  -3  -1   2 50594.2 1638.00   3
  -3  -1   2 55376.2 1355.30   2
  -3  -1   3 122910. 2552.42   1
  -3  -1   3 127192. 2287.01   2
  -3  -1   4 95741.6 1485.18   5
  -3  -1   4 96743.4 2250.51   2
  -3  -1   4 96341.8 2325.91   1
  -3  -1   5 10559.6 865.365   2
  -3  -1   6 62838.2 2317.62   2
  -3  -1   7 12878.3 1179.37   2
  -3  -1   8 15852.3 1408.66   2
  -3  -1   9 31760.1 2067.10   2
  -3   0  -9-36.4743 106.618  10
  -3   0  -8 2073.20 313.926  19
  -3   0  -8 1908.96 239.916   6
  -3   0  -8 1921.87 249.283  11
  -3   0  -8 1811.63 272.811  10
  -3   0  -7 5872.33 465.408  11
  -3   0  -7 6310.69 539.477  19
  -3   0  -7 6061.99 494.602  10
  -3   0  -6 3365.32 403.850  19
  -3   0  -6 3039.55 346.252  11
  -3   0  -6 3608.15 383.744  10
  -3   0  -6 3676.65 395.279  17
  -3   0  -5 464.999 146.504  19
  -3   0  -5 512.559 180.530  10
  -3   0  -5 690.010 163.384  17
  -3   0  -4 6145.72 674.561   3
  -3   0  -3 40350.9 1671.91   3
  -3   0  -3 35420.3 1313.39   4
  -3   0  -2 25847.6 1274.78   3
  -3   0  -2 26679.1 991.977   4
  -3   0  -1 2412.71 414.090   3
  -3   0  -1 2127.58 257.650   4
  -3   0   0 15534.0 893.325   3
  -3   0   1 7861.17 636.426   3
  -3   0   2 14228.8 835.525   3
  -3   0   3 49323.5 1534.12   3
  -3   0   3 49185.7 1479.08   2
  -3   0   4 61275.7 1857.15   2
  -3   0   4 60083.4 1720.07   1
  -3   0   5 124293. 2972.35   2
  -3   0   6 25103.1 1507.03   2
  -3   0   7 26401.1 1702.20   2
  -3   0   8 13682.8 1302.23   2
  -3   1 -10 10125.1 350.031  15
  -3   1  -9 14265.2 595.469  11
  -3   1  -9 13765.1 615.634  10
  -3   1  -8 17915.9 781.401  11
  -3   1  -8 18637.2 823.205  10
  -3   1  -8 18009.5 836.113  19
  -3   1  -7 11663.3 670.133  11
  -3   1  -7 12397.9 724.591  17
  -3   1  -7 12821.8 717.078  10
  -3   1  -7 13080.5 758.396  19
  -3   1  -6 40370.7 1242.12  10
  -3   1  -6 39256.8 1182.85  11
  -3   1  -6 40065.8 1249.20  17
  -3   1  -6 41913.9 1313.13  19
  -3   1  -4 13724.7 1059.02   3
  -3   1  -1 109724. 2455.95   3
  -3   1   0 7852.89 652.005   3
  -3   1   1 98311.6 2103.49   3
  -3   1   2 61332.5 1631.29   3
  -3   1   3 349.037 222.311   2
  -3   1   3 594.193 197.088   3
  -3   1   4 102735. 2084.86   1
  -3   1   4 99220.4 2443.77   2
  -3   1   5 111259. 2910.57   2
  -3   1   6 9335.27 962.990   2
  -3   1   7 3668.70 674.114   2
  -3   1   8 21020.2 1642.41   2
  -3   2 -10 1009.85 150.417  11
  -3   2 -10 1013.54 172.560  10
  -3   2  -9 991.992 200.216  11
  -3   2  -9 825.383 217.555  10
  -3   2  -8 6760.69 526.450  19
  -3   2  -8 6614.62 530.553  10
  -3   2  -8 7154.90 526.592  11
  -3   2  -7 6287.15 516.271  10
  -3   2  -7 6530.34 510.060  11
  -3   2  -7 6135.44 519.572  17
  -3   2  -7 6489.69 527.733  19
  -3   2  -6 143.631 122.166  11
  -3   2  -6 33.4934 142.904  17
  -3   2  -6-72.5822 134.318  10
  -3   2  -6 320.137 173.345  19
  -3   2   1 8271.88 618.963   3
  -3   2   2 59061.5 1565.49   3
  -3   2   3 5499.00 469.023   3
  -3   2   3 5552.53 585.441   2
  -3   2   4 13038.3 949.181   2
  -3   2   5 50233.2 2031.04   2
  -3   2   6 25349.0 1597.29   2
  -3   2   7 35435.5 2029.17   2
  -3   3 -10 11497.2 510.325  11
  -3   3 -10 11307.3 514.910  10
  -3   3  -9 27169.3 948.235  10
  -3   3  -9 25830.9 926.613  11
  -3   3  -8 35263.7 1162.95  11
  -3   3  -8 35930.9 1174.91  10
  -3   3  -7 23572.1 949.635  19
  -3   3  -7 23580.9 958.900  11
  -3   3  -7 24241.6 971.147  17
  -3   3  -7 23024.3 960.185  10
  -3   3  -6 50010.1 1317.95  11
  -3   3  -6 49616.3 1332.33  10
  -3   3  -6 49835.9 1332.71  17
  -3   3   1 16633.0 875.447   3
  -3   3   2 190.739 152.408   3
  -3   3   2 150.022 205.516   2
  -3   3   3 4288.43 531.078   2
  -3   3   4 36999.0 1648.91   2
  -3   3   5 1948.54 462.957   2
  -3   3   6-168.920 258.856   2
  -3   3   7 120.183 186.491   2
  -3   4 -11 902.883 121.012  11
  -3   4 -10 4183.32 338.825  11
  -3   4 -10 3668.95 314.133  10
  -3   4  -9 16013.4 746.559  11
  -3   4  -9 15281.8 710.850  10
  -3   4  -8 3081.89 369.088  11
  -3   4  -8 3558.46 389.893  10
  -3   4  -7 3808.09 391.721  11
  -3   4  -7 3843.94 395.176  17
  -3   4  -7 3252.50 371.008  10
  -3   4  -6 15082.4 727.847  11
  -3   4  -6 15278.1 714.806  17
  -3   4   1 70981.1 1835.31   3
  -3   4   2 61524.6 1906.79   2
  -3   4   3 23348.4 1275.82   2
  -3   4   4 23073.8 1364.54   2
  -3   4   5 33312.7 1770.17   2
  -3   5 -11 6711.08 322.164  11
  -3   5 -10 3134.03 311.306  11
  -3   5 -10 3076.72 282.828  10
  -3   5  -9 15279.2 738.461  11
  -3   5  -9 14453.1 686.446  10
  -3   5  -8 16073.5 804.330  11
  -3   5  -8 15784.2 762.614  10
  -3   5  -7 87672.5 1775.15  10
  -3   5  -7 87371.3 1838.50  11
  -3   5  -6 33546.4 1086.35  11
  -3   5   2-25.1243 116.913   2
  -3   5   3 203.794 156.779   2
  -3   6 -11 3324.69 238.583  11
  -3   6 -10 9428.78 508.879  11
  -3   6 -10 8504.70 419.525  10
  -3   6  -9 20448.8 848.775  11
  -3   6  -9 20421.8 761.442  10
  -3   6  -8 28181.7 1040.62  11
  -3   6  -8 27928.1 956.234  10
  -3   6  -7 6216.90 469.305  10
  -3   6  -7 6096.54 495.173  11
  -3   6  -6 5935.42 474.096  11
  -3   6   1 73367.6 2258.70   2
  -3   7 -11 4980.03 281.649  11
  -3   7 -10 3190.60 306.672  11
  -3   7  -9 598.909 201.573  11
  -3   7  -8 8674.18 581.156  11
  -3   7  -7 1146.10 259.242  11
  -3   7  -6 56186.9 1439.86  11
  -3   8 -11 8291.52 328.759  11
  -3   8 -10 18716.9 660.133  11
  -3   8  -9 20207.0 787.723  11
  -3   8  -8 25138.5 949.815  11
  -3   8  -7 63862.5 1551.92  11
  -3   8  -6 67318.2 1585.22  11
  -3   9 -10 356.302 125.065  11
  -3   9  -9 147.807 121.490  11
  -3   9  -8 6110.48 456.039  11
  -3   9  -7 16.5214 148.502  11
  -3   9  -6-97.7161 150.254  11
  -3  10 -10 11556.3 395.339  11
  -3  10  -9 28707.8 777.643  11
  -3  10  -8 42299.6 1063.54  11
  -3  10  -7 14536.9 672.044  11
  -3  10  -6 28611.6 973.274  11
  -3  11  -9 57.6735 69.5893  11
  -3  11  -8 701.830 140.666  11
  -3  11  -7 98.2554 101.313  11
  -3  11  -6 1100.71 188.370  11
  -3  11  -5 4943.00 382.076  11
  -3  12  -7 5134.85 274.081  11
  -3  12  -6 5202.20 306.815  11
  -3  12  -5 6014.20 344.568  11
  -3  12  -4 1194.68 163.633  11
  -2 -12   2 2194.01 197.695  12
  -2 -12   3 4163.61 327.736  12
  -2 -12   4 2463.74 294.697  12
  -2 -12   5 2404.42 269.219   7
  -2 -12   5 2201.45 280.682  12
  -2 -12   6 11811.3 573.891  12
  -2 -12   6 11107.2 583.056   7
  -2 -12   7 6676.05 469.238   7
  -2 -12   7 5875.01 364.875  12
  -2 -12   8 6401.42 445.996   7
  -2 -12   9 22076.9 729.047   7
  -2 -12  10 9618.49 401.095   7
  -2 -11   0 5708.69 302.983  16
  -2 -11   1 2599.56 277.574  12
  -2 -11   1 2549.31 263.359  16
  -2 -11   2 4288.81 405.448  12
  -2 -11   2 4743.29 386.579  16
  -2 -11   3 188.218 179.898   7
  -2 -11   3 309.174 218.839  12
  -2 -11   4 2527.46 339.152   7
  -2 -11   4 2665.15 377.681  12
  -2 -11   5 467.243 224.086   7
  -2 -11   5 403.257 234.430  12
  -2 -11   6 31.5955 176.999  12
  -2 -11   6 213.948 202.435   7
  -2 -11   7 815.692 222.940  12
  -2 -11   7 997.256 304.263   7
  -2 -11   8 1828.31 336.385   7
  -2 -11   9 1671.75 292.647   7
  -2 -11  10 1036.26 213.375   7
  -2 -11  11-459.051 108.549   7
  -2 -10  -2 9802.89 347.658  16
  -2 -10  -1 56487.4 1078.20  16
  -2 -10   0 22331.1 817.597  12
  -2 -10   0 21637.6 778.186  16
  -2 -10   1 4878.52 404.871  13
  -2 -10   1 5115.88 476.585  12
  -2 -10   1 5341.42 443.447  16
  -2 -10   2 3899.28 374.466  13
  -2 -10   2 4080.42 413.358   7
  -2 -10   2 4925.67 529.228  12
  -2 -10   2 4278.95 417.827  16
  -2 -10   3 36792.8 1277.12   7
  -2 -10   3 36221.1 1372.45  12
  -2 -10   3 37509.7 1195.06  16
  -2 -10   4 19124.8 974.155   7
  -2 -10   4 17698.0 965.878  12
  -2 -10   5 8703.86 705.293   7
  -2 -10   5 8775.27 696.853  12
  -2 -10   6 18947.5 1010.18   7
  -2 -10   6 18649.2 941.746  12
  -2 -10   7 22252.7 1094.05   7
  -2 -10   7 22140.7 942.040  12
  -2 -10   8 17788.8 957.308   7
  -2 -10   8 16313.3 671.907   8
  -2 -10   9 20176.5 958.796   7
  -2 -10   9 19362.2 739.022   8
  -2 -10  10 19068.3 829.221   7
  -2 -10  10 17826.8 684.399   8
  -2 -10  11 10722.1 498.879   7
  -2 -10  11 10246.1 474.616   8
  -2 -10  12 5774.65 294.268   8
  -2  -9  -3 5065.52 291.772  16
  -2  -9  -2 21832.8 745.361  16
  -2  -9  -1 191.684 132.324  12
  -2  -9  -1 430.509 166.145  16
  -2  -9   0 360.010 166.743  13
  -2  -9   0 253.064 179.091  12
  -2  -9   0 332.037 175.304  16
  -2  -9   1 10786.3 676.063  13
  -2  -9   1 10420.1 751.226  12
  -2  -9   1 11683.6 689.915  16
  -2  -9   2 554.241 182.224  13
  -2  -9   2 667.816 229.672   7
  -2  -9   2 1300.84 328.680  12
  -2  -9   2 555.861 221.247  16
  -2  -9   3 1662.24 275.281  13
  -2  -9   3 1987.63 365.383   7
  -2  -9   3 1854.96 374.634  12
  -2  -9   3 1663.12 297.761  16
  -2  -9   4 293.677 187.653  12
  -2  -9   4 162.896 195.160   7
  -2  -9   4 130.407 173.021  16
  -2  -9   5 2271.63 368.367  12
  -2  -9   5 2803.35 417.351   7
  -2  -9   6 6174.30 580.975  12
  -2  -9   6 5826.40 602.196   7
  -2  -9   7 140.408 202.849   7
  -2  -9   7 128.581 110.650   8
  -2  -9   8 1071.00 315.564   7
  -2  -9   8 1202.31 236.264   8
  -2  -9   9 6037.69 557.812   7
  -2  -9   9 5795.33 479.437   8
  -2  -9  10 1018.98 253.442   7
  -2  -9  10 966.470 242.584   8
  -2  -9  11 244.183 162.628   7
  -2  -9  11 34.7992 139.406   8
  -2  -9  12 2735.08 257.715   8
  -2  -9  13 7335.53 279.070   8
  -2  -8  -4 11149.6 455.167  16
  -2  -8  -3 2421.32 277.818  16
  -2  -8  -2 3600.27 387.684  16
  -2  -8  -1 30653.9 1191.00  13
  -2  -8  -1 32264.4 1170.51  12
  -2  -8  -1 30593.8 1104.17  16
  -2  -8   0 30941.8 1204.36  13
  -2  -8   0 33167.5 1290.23  12
  -2  -8   0 31527.9 1137.31  16
  -2  -8   1 58181.4 1620.50  13
  -2  -8   1 61885.1 1806.06  12
  -2  -8   1 60186.8 1572.57  16
  -2  -8   1 61149.1 1667.43   7
  -2  -8   2 31341.4 1242.06   7
  -2  -8   2 31551.3 1156.91  13
  -2  -8   2 29559.1 1271.79  12
  -2  -8   2 30252.4 1104.60  16
  -2  -8   3 15606.1 896.408   7
  -2  -8   3 14097.8 870.142  12
  -2  -8   3 16126.3 1614.96   5
  -2  -8   3 15497.8 782.111  16
  -2  -8   4 27011.0 1188.15   7
  -2  -8   4 25603.4 1146.56  12
  -2  -8   4 27022.2 2105.32   5
  -2  -8   4 27481.8 1018.09  16
  -2  -8   5 26230.1 1181.76   7
  -2  -8   5 25123.6 1108.58  12
  -2  -8   5 26363.5 2045.36   5
  -2  -8   6 8004.66 673.420   7
  -2  -8   6 7469.85 597.691  12
  -2  -8   6 8258.50 1190.81   5
  -2  -8   7 29710.1 1271.11   7
  -2  -8   7 26786.2 2095.18   5
  -2  -8   7 26310.6 983.007   8
  -2  -8   8 21151.1 1074.30   7
  -2  -8   8 21927.4 934.974   8
  -2  -8   9 17564.4 942.038   7
  -2  -8   9 16655.6 827.013   8
  -2  -8  10 25192.3 1022.17   7
  -2  -8  10 25290.0 999.656   8
  -2  -8  11 14404.7 703.287   8
  -2  -8  12 7068.07 434.453   8
  -2  -8  13 4229.26 251.268   8
  -2  -7  -5 186.788 100.143  16
  -2  -7  -4-473.626 134.585  15
  -2  -7  -3 2950.96 292.755  15
  -2  -7  -2 5503.61 542.773  13
  -2  -7  -2 5070.17 388.104  15
  -2  -7  -1 122.761 180.403  13
  -2  -7  -1 425.613 190.217  12
  -2  -7   0 244.613 136.819  13
  -2  -7   0 269.521 210.899  12
  -2  -7   0 104.237 135.117   4
  -2  -7   1 2725.98 346.505  13
  -2  -7   1 2002.30 304.703   7
  -2  -7   1 3206.20 419.651  12
  -2  -7   1 2307.70 307.162  16
  -2  -7   1 2603.81 560.516   4
  -2  -7   2 2726.40 383.918  12
  -2  -7   2 2442.02 308.081  16
  -2  -7   2 2181.47 540.965   4
  -2  -7   3 1105.09 444.480   5
  -2  -7   4 812.242 364.210   5
  -2  -7   5 6456.55 969.121   5
  -2  -7   6 5322.86 526.331   7
  -2  -7   6 4683.02 840.645   5
  -2  -7   7 7028.29 598.761   7
  -2  -7   7 7185.33 1056.42   5
  -2  -7   8 20491.2 1021.80   7
  -2  -7   8 20803.2 1765.86   5
  -2  -7   9 1050.43 277.150   7
  -2  -7   9 745.292 225.028   8
  -2  -7  10 4479.43 463.881   8
  -2  -7  11 20416.4 868.083   8
  -2  -7  12 2312.86 273.192   8
  -2  -7  13 2058.04 184.952   8
  -2  -6  -6 15042.3 481.605  15
  -2  -6  -5 7613.01 439.757  19
  -2  -6  -5 7854.63 438.459  15
  -2  -6  -4 3185.91 383.221   6
  -2  -6  -4 2552.17 292.939  15
  -2  -6  -4 3038.66 323.674  19
  -2  -6  -3 215.507 220.923  13
  -2  -6  -3 179.701 175.946   6
  -2  -6  -3-107.180 125.030  15
  -2  -6  -2 29114.8 1183.42  13
  -2  -6  -2 28918.9 1115.18   6
  -2  -6  -2 29357.7 1024.09  19
  -2  -6  -2 31710.4 2102.76   4
  -2  -6  -2 28672.5 930.751  15
  -2  -6  -1 26358.6 1082.07  13
  -2  -6  -1 28209.4 1123.26  12
  -2  -6  -1 28357.2 1064.48   6
  -2  -6  -1 27162.3 1870.14   4
  -2  -6   0 46448.8 2292.66   4
  -2  -6   1 44584.4 2149.71   4
  -2  -6   2 24424.1 1720.65   5
  -2  -6   2 25316.8 1554.21   4
  -2  -6   3 33335.6 1949.87   5
  -2  -6   4 12541.6 1197.70   5
  -2  -6   5 30336.4 1861.89   5
  -2  -6   6 20694.9 1571.79   5
  -2  -6   7 17706.4 1188.81   2
  -2  -6   7 16785.3 1442.26   5
  -2  -6   8 3221.10 413.073   7
  -2  -6   8 3311.59 615.258   2
  -2  -6   8 2123.92 556.355   5
  -2  -6   9 505.260 250.459   2
  -2  -6   9 568.455 195.538   8
  -2  -6  10 5828.54 509.461   8
  -2  -6  11 3899.13 402.657   8
  -2  -6  12 6869.92 442.020   8
  -2  -6  13 4871.42 260.805   8
  -2  -5  -7 126.793 85.2294  15
  -2  -5  -6 443.941 143.071  19
  -2  -5  -6 522.924 172.091   6
  -2  -5  -6 558.629 161.798  15
  -2  -5  -5 6646.92 495.689  19
  -2  -5  -5 6089.07 445.329  15
  -2  -5  -5 5863.65 497.374   6
  -2  -5  -4 63.5900 132.263   6
  -2  -5  -4 244.127 153.465  15
  -2  -5  -4 100.413 107.636  19
  -2  -5  -3 40163.6 1383.68  13
  -2  -5  -3 39351.3 1231.08  19
  -2  -5  -3 39724.5 1299.23   6
  -2  -5  -3 42181.5 1161.23  15
  -2  -5  -3 39994.2 2299.58   4
  -2  -5  -2 9258.95 636.969  13
  -2  -5  -2 9843.73 620.546   6
  -2  -5  -2 8872.14 557.039  19
  -2  -5  -1 9379.92 1012.30   4
  -2  -5   0 4010.06 632.786   4
  -2  -5   1 23531.9 1395.81   4
  -2  -5   2 1268.00 401.202   5
  -2  -5   2 1689.08 415.368   4
  -2  -5   3 133698. 3479.93   5
  -2  -5   4 237086. 4590.25   5
  -2  -5   5 16046.1 1232.49   5
  -2  -5   5 17147.1 935.879   2
  -2  -5   6 24557.1 1552.78   5
  -2  -5   6 24862.1 1317.47   2
  -2  -5   7 14763.2 1246.50   5
  -2  -5   7 13551.2 1098.06   2
  -2  -5   8 33403.6 1939.91   5
  -2  -5   8 36873.1 1982.09   2
  -2  -5   9 24818.2 1009.09   8
  -2  -5   9 25354.5 1773.31   2
  -2  -5  10 18502.5 873.310   8
  -2  -5  11 28746.9 1000.37   8
  -2  -5  12 18710.2 683.091   8
  -2  -4  -8 14004.6 433.662  15
  -2  -4  -7 15055.7 647.976   6
  -2  -4  -7 15139.7 600.510  15
  -2  -4  -6 37250.2 1175.33  19
  -2  -4  -6 38859.1 1209.75   6
  -2  -4  -6 40466.5 1113.08  15
  -2  -4  -5 6580.59 534.553  19
  -2  -4  -5 6301.47 526.569   6
  -2  -4  -4 29473.2 1177.53  13
  -2  -4  -4 31976.3 1140.49  19
  -2  -4  -4 28946.7 1108.83   6
  -2  -4  -4 30461.8 1976.23   4
  -2  -4  -3 32611.6 1179.36  13
  -2  -4  -3 31219.5 1898.67   4
  -2  -4  -3 33085.7 1101.75  19
  -2  -4  -3 33113.0 1120.68   6
  -2  -4  -2 36621.9 1904.07   4
  -2  -4  -1 76515.4 2524.88   4
  -2  -4   0 64998.7 2166.89   4
  -2  -4   1 58353.8 2178.46   5
  -2  -4   1 58482.7 1759.32   1
  -2  -4   1 59902.4 1958.68   4
  -2  -4   2 64971.9 2193.94   5
  -2  -4   2 63295.7 1932.35   4
  -2  -4   3 121352. 2916.19   5
  -2  -4   3 132697. 1714.86   2
  -2  -4   4 15089.3 1040.21   5
  -2  -4   4 16166.9 797.397   2
  -2  -4   5 3960.23 489.032   2
  -2  -4   5 3860.55 544.383   5
  -2  -4   6 16213.4 1144.62   5
  -2  -4   6 16401.6 1088.67   2
  -2  -4   7 19386.1 1324.40   2
  -2  -4   8 232.220 245.827   2
  -2  -4   9 569.719 311.073   2
  -2  -4   9 332.700 169.856   8
  -2  -4  10 566.346 217.008   8
  -2  -4  11 3751.78 363.843   8
  -2  -3  -9 158.851 61.9786  15
  -2  -3  -8 361.373 143.471   6
  -2  -3  -8 469.583 139.294  15
  -2  -3  -7 2841.42 332.802   6
  -2  -3  -7 3011.74 332.304  15
  -2  -3  -7 2695.98 344.376  19
  -2  -3  -6 2388.21 358.321  19
  -2  -3  -6 2222.12 327.633   6
  -2  -3  -6 2277.27 285.185  10
  -2  -3  -5 17947.2 767.355  10
  -2  -3  -5 17249.7 1482.80   4
  -2  -3  -5 17766.4 873.952  19
  -2  -3  -4 5066.94 474.445  13
  -2  -3  -4 3676.05 636.962   4
  -2  -3  -4 4668.79 433.634  19
  -2  -3  -3-650.753 305.281   4
  -2  -3  -2 5114.93 651.463   4
  -2  -3  -1 50275.6 1409.50   1
  -2  -3  -1 47295.5 1760.82   4
  -2  -3   0 58523.9 1593.15   1
  -2  -3   0 60039.8 1818.65   4
  -2  -3   1 21548.9 1176.45   5
  -2  -3   1 22302.8 1040.56   4
  -2  -3   1 23290.3 1040.61   1
  -2  -3   2 18168.9 1012.19   5
  -2  -3   2 17935.1 900.774   4
  -2  -3   2 18630.0 529.074   2
  -2  -3   2 18164.7 960.459   1
  -2  -3   3 325964. 4210.55   1
  -2  -3   3 325413. 4105.43   5
  -2  -3   4 68399.3 1897.26   5
  -2  -3   4 68357.9 1725.92   2
  -2  -3   5 86170.6 2236.00   2
  -2  -3   6 72632.4 2329.99   2
  -2  -3   7 82629.0 2755.54   2
  -2  -3   8 38678.6 2080.95   2
  -2  -3   9 23467.4 929.778   8
  -2  -3   9 24037.6 1759.83   2
  -2  -3  10 45996.5 1263.94   8
  -2  -2  -9 7584.68 360.770  15
  -2  -2  -9 7571.86 366.893   6
  -2  -2  -8 8973.42 539.645   6
  -2  -2  -8 10510.9 541.264  15
  -2  -2  -7 8542.92 548.005  11
  -2  -2  -7 8219.30 599.906  19
  -2  -2  -7 9397.57 573.202  10
  -2  -2  -6 11565.4 650.181  11
  -2  -2  -6 12537.7 752.775  19
  -2  -2  -6 12712.3 678.792  10
  -2  -2  -5 51514.7 1440.63  19
  -2  -2  -5 48481.4 1297.65  17
  -2  -2  -5 46618.7 1245.41  10
  -2  -2  -5 46711.7 2262.92   4
  -2  -2  -4 25150.8 1530.91   4
  -2  -2  -3 22378.1 1297.70   4
  -2  -2  -2 92067.8 1920.45   3
  -2  -2  -2 91060.3 2339.48   4
  -2  -2  -1 11215.9 676.413   3
  -2  -2  -1 10692.3 728.639   4
  -2  -2   0 38285.2 1232.06   3
  -2  -2   0 42915.8 1306.83   4
  -2  -2   1 4142.44 437.368   3
  -2  -2   1 4623.93 245.066   2
  -2  -2   1 3601.90 454.565   5
  -2  -2   1 4139.24 408.255   4
  -2  -2   2 371656. 3777.74   5
  -2  -2   2 363982. 2783.51   2
  -2  -2   3 380129. 4214.80   1
  -2  -2   3 383154. 3525.88   2
  -2  -2   4 6669.82 512.485   5
  -2  -2   4 6728.43 576.424   2
  -2  -2   5 11813.3 870.870   2
  -2  -2   6 325.790 218.865   2
  -2  -2   7 1619.40 439.091   2
  -2  -2   8 460.767 318.242   2
  -2  -2   9 23743.0 892.126   8
  -2  -2   9 26526.9 1875.65   2
  -2  -1 -10 56.9219 55.1443  15
  -2  -1  -9-79.7872 97.2700   6
  -2  -1  -9-61.7871 132.776  15
  -2  -1  -8 931.663 197.026  11
  -2  -1  -8 669.584 228.737  19
  -2  -1  -8 1366.05 251.840  10
  -2  -1  -7 20960.6 894.364  11
  -2  -1  -7 23227.8 932.798  10
  -2  -1  -7 22699.1 1005.64  19
  -2  -1  -6 34890.1 1131.41  11
  -2  -1  -6 36673.0 1250.82  19
  -2  -1  -6 37281.3 1189.92  17
  -2  -1  -6 37127.5 1172.18  10
  -2  -1  -5 25175.0 1528.65   4
  -2  -1  -4 59098.6 2122.31   4
  -2  -1  -3 814.412 201.699   3
  -2  -1  -3 667.494 232.417   4
  -2  -1  -2 723.454 203.922   3
  -2  -1  -2 628.794 190.306   4
  -2  -1  -1 75331.4 1672.33   3
  -2  -1  -1 80553.0 1654.24   4
  -2  -1   0 24824.0 936.273   3
  -2  -1   0 26893.0 852.876   4
  -2  -1   1 194965. 2549.77   3
  -2  -1   1 184373. 2111.12   4
  -2  -1   2 6893.55 519.953   3
  -2  -1   2 7038.88 432.380   2
  -2  -1   2 6243.78 402.332   5
  -2  -1   3 66572.8 1213.15   5
  -2  -1   3 65602.4 1505.21   2
  -2  -1   3 67747.5 1617.64   1
  -2  -1   4 25627.7 1117.14   2
  -2  -1   5 70414.8 2110.59   2
  -2  -1   6 86930.4 2656.61   2
  -2  -1   7 47665.0 2177.86   2
  -2  -1   8 41447.0 2211.99   2
  -2  -1   9 2162.64 551.417   2
  -2   0 -10 4441.05 273.395   6
  -2   0 -10 4612.79 274.547  15
  -2   0  -9 13382.1 633.631  11
  -2   0  -9 13815.3 657.804  10
  -2   0  -8 35050.6 1144.23  11
  -2   0  -8 35544.4 1158.10  10
  -2   0  -8 37356.9 1263.35  19
  -2   0  -7 3497.88 384.544  11
  -2   0  -7 3247.04 380.065  10
  -2   0  -7 3592.19 422.575  19
  -2   0  -6 1171.46 241.610  19
  -2   0  -6 918.667 199.339  11
  -2   0  -6 1121.76 233.637  17
  -2   0  -6 655.665 174.155  10
  -2   0  -5 29007.8 1488.53   4
  -2   0  -4 19051.1 1043.51   3
  -2   0  -4 16369.2 997.177   4
  -2   0  -3 20832.4 966.680   4
  -2   0  -3 21711.4 1038.88   3
  -2   0  -2 26417.7 924.878   4
  -2   0  -1 11586.6 498.527   4
  -2   0  -1 11804.3 661.024   3
  -2   0   0 744.689 216.126   3
  -2   0   0 852.138 132.163   4
  -2   0   1 32658.6 1008.30   3
  -2   0   2 3755.80 375.196   3
  -2   0   2 4364.31 369.799   2
  -2   0   3 32204.2 1035.53   1
  -2   0   3 33310.7 1125.85   2
  -2   0   4 28233.1 1204.52   2
  -2   0   5 4430.55 584.702   2
  -2   0   6 2307.16 493.611   2
  -2   0   7 5726.11 794.827   2
  -2   0   8 22147.3 1627.77   2
  -2   1 -10 6138.50 392.068  11
  -2   1 -10 6828.69 416.683  10
  -2   1  -9 5646.81 454.563  11
  -2   1  -9 5877.07 470.463  10
  -2   1  -8 7134.62 573.154  19
  -2   1  -8 6420.67 524.556  10
  -2   1  -8 6938.40 537.487  11
  -2   1  -7 16567.5 810.547  11
  -2   1  -7 17820.1 845.581  17
  -2   1  -7 17635.2 837.724  10
  -2   1  -7 16822.6 850.256  19
  -2   1  -5 100710. 2505.81   4
  -2   1  -4 97735.5 2121.20   4
  -2   1  -3 72687.9 1534.63   4
  -2   1  -2 153143. 1685.58   4
  -2   1  -1 184446. 1123.66   4
  -2   1   1 43249.4 1100.92   3
  -2   1   2 152934. 2006.02   3
  -2   1   2 162917. 2253.68   2
  -2   1   3 33909.3 1193.88   2
  -2   1   3 32831.6 931.820   1
  -2   1   4 72463.2 2001.88   2
  -2   1   5 221839. 3941.71   2
  -2   1   6 63479.2 2389.91   2
  -2   1   7 79120.3 2873.08   2
  -2   1   8 3316.75 633.061   2
  -2   2 -11 4587.16 276.163  11
  -2   2 -10 5822.59 423.567  11
  -2   2 -10 5856.54 428.280  10
  -2   2  -9 2446.60 317.358  11
  -2   2  -9 2847.02 352.005  10
  -2   2  -8 8817.55 605.715  11
  -2   2  -8 8245.60 590.487  10
  -2   2  -8 8728.08 616.170  19
  -2   2  -7 16298.1 813.214  19
  -2   2  -7 16784.0 798.045  11
  -2   2  -7 16333.4 796.419  10
  -2   2  -7 17863.4 826.542  17
  -2   2  -2 738.298 64.8873   4
  -2   2   1 21870.0 769.296   3
  -2   2   2 3907.14 303.842   3
  -2   2   2 3804.44 398.085   2
  -2   2   3 62033.9 1021.42   1
  -2   2   3 64840.2 1730.81   2
  -2   2   4 23101.8 1183.75   2
  -2   2   5 72657.0 2344.01   2
  -2   2   6 17225.1 1255.78   2
  -2   2   7 589.864 237.267   2
  -2   3 -11 11922.3 495.689  11
  -2   3 -10 2329.43 302.243  11
  -2   3 -10 2342.30 294.104  10
  -2   3  -9 3315.06 383.401  11
  -2   3  -9 2615.66 334.022  10
  -2   3  -8 22498.7 957.231  11
  -2   3  -8 23364.7 954.958  10
  -2   3  -7 38113.0 1187.39  11
  -2   3  -7 40327.5 1205.74  17
  -2   3  -7 39489.8 1196.32  10
  -2   3  -7 37527.0 1183.94  19
  -2   3   2 18134.2 586.049   3
  -2   3   2 18140.8 879.088   2
  -2   3   3 210271. 3296.08   2
  -2   3   4 17896.6 1091.76   2
  -2   3   5 6939.98 768.287   2
  -2   3   6 50343.5 2167.05   2
  -2   4 -11 5301.30 356.074  11
  -2   4 -11 5574.81 344.203  10
  -2   4 -10 15259.0 720.049  11
  -2   4 -10 13881.0 652.066  10
  -2   4  -9 247.564 166.246  11
  -2   4  -9-33.1764 136.547  10
  -2   4  -8-7.88654 156.835  11
  -2   4  -8 208.166 156.766  10
  -2   4  -7 456.516 149.628  11
  -2   4  -7-46.6587 99.6847  10
  -2   4   2 9335.12 678.955   2
  -2   4   3 3176.63 452.074   2
  -2   4   4 35535.5 1580.44   2
  -2   5 -12 8165.80 301.458  11
  -2   5 -11 22104.6 730.741  11
  -2   5 -11 21781.4 643.631  10
  -2   5 -10 67219.3 1503.48  11
  -2   5 -10 66976.5 1383.46  10
  -2   5  -9 13009.1 723.992  11
  -2   5  -9 12840.8 672.056  10
  -2   5  -8 8058.51 576.218  11
  -2   5  -8 8488.75 554.162  10
  -2   5  -7 48320.8 1252.06  10
  -2   5  -7 46898.1 1302.32  11
  -2   5   1 7984.83 629.022   2
  -2   5   2 11431.2 788.812   2
  -2   6 -12-5.48181 56.7134  11
  -2   6 -11 2355.13 249.569  11
  -2   6 -10 194.840 170.574  11
  -2   6 -10 201.390 124.194  10
  -2   6  -9 17645.2 828.820  11
  -2   6  -9 20709.4 794.586  10
  -2   6  -8 24267.8 977.555  11
  -2   6  -7 14083.4 719.870  11
  -2   6  -6 26806.4 935.014  11
  -2   7 -11 12066.5 523.263  11
  -2   7 -10 16111.7 712.812  11
  -2   7  -9 21032.7 884.563  11
  -2   7  -8 43839.8 1289.99  11
  -2   7  -7 945.172 216.851  11
  -2   7  -6 8798.53 554.461  11
  -2   8 -11 1803.27 201.366  11
  -2   8 -10 14507.4 645.154  11
  -2   8  -9 1437.77 257.196  11
  -2   8  -8 887.230 229.326  11
  -2   8  -7 12082.5 671.881  11
  -2   8  -6 2861.89 328.519  11
  -2   9 -11 8649.62 362.185  11
  -2   9 -10 2360.84 253.389  11
  -2   9  -9 5340.69 411.593  11
  -2   9  -8 20658.0 832.311  11
  -2   9  -7 20203.1 841.849  11
  -2   9  -6 3861.42 381.474  11
  -2  10 -10 13476.7 483.314  11
  -2  10  -9 29293.1 832.720  11
  -2  10  -8 9896.45 529.114  11
  -2  10  -7 11194.3 593.717  11
  -2  10  -6 11661.1 612.492  11
  -2  11  -9 5105.15 288.364  11
  -2  11  -8 4124.03 295.759  11
  -2  11  -7 542.979 153.378  11
  -2  11  -6 2202.51 245.657  11
  -1 -13   4 8335.20 376.988  12
  -1 -13   5 11448.0 450.658  12
  -1 -13   6 7602.81 339.153  12
  -1 -13   7 9049.80 397.325   7
  -1 -13   8 468.476 112.387   7
  -1 -12   1 280.373 88.8460  12
  -1 -12   2 561.382 168.683  12
  -1 -12   3 341.301 186.898  12
  -1 -12   4 620.466 211.052  12
  -1 -12   5 1728.60 268.572   7
  -1 -12   5 2088.11 309.700  12
  -1 -12   6 962.444 226.257   7
  -1 -12   6 1185.85 236.531  12
  -1 -12   7 1888.02 234.734  12
  -1 -12   7 2342.36 320.610   7
  -1 -12   8 12843.0 644.589   7
  -1 -12   9 6155.77 423.348   7
  -1 -12  10 7649.15 382.255   7
  -1 -11  -1 3934.48 247.021  16
  -1 -11   0 2173.98 239.522  12
  -1 -11   0 2292.61 237.034  16
  -1 -11   1 8358.19 549.057  12
  -1 -11   1 8529.02 486.461  16
  -1 -11   2 4932.73 492.826  12
  -1 -11   2 4983.08 420.091  16
  -1 -11   3 6175.35 565.024  12
  -1 -11   3 5439.28 443.185   7
  -1 -11   4 13222.3 737.589   7
  -1 -11   4 13331.9 815.607  12
  -1 -11   5 10553.7 706.010   7
  -1 -11   5 10440.6 713.593  12
  -1 -11   6 9327.51 684.037   7
  -1 -11   6 9170.47 634.943  12
  -1 -11   7 24386.1 1072.68   7
  -1 -11   7 23931.0 897.865  12
  -1 -11   8 13299.2 785.556   7
  -1 -11   9 435.929 211.696   7
  -1 -11   9 876.047 167.429   8
  -1 -11  10 1586.93 252.691   7
  -1 -11  10 1340.18 181.826   8
  -1 -11  11 3110.53 244.192   7
  -1 -11  11 3167.85 219.880   8
  -1 -10  -3 1426.89 131.272  16
  -1 -10  -2-32.7662 91.3160  16
  -1 -10  -1 2241.23 272.014  12
  -1 -10  -1 1983.19 276.312  16
  -1 -10   0 3429.65 396.607  12
  -1 -10   0 3376.33 361.707  16
  -1 -10   1 470.244 240.802  12
  -1 -10   1 244.486 163.922  16
  -1 -10   2 12112.4 700.497   7
  -1 -10   2 12367.9 825.404  12
  -1 -10   2 11983.6 694.139  16
  -1 -10   3 7767.70 614.755   7
  -1 -10   3 7649.58 675.631  12
  -1 -10   3 8319.38 582.255  16
  -1 -10   4 2668.01 424.853  12
  -1 -10   4 2687.43 405.170   7
  -1 -10   5 5746.97 588.491   7
  -1 -10   5 6858.27 611.919  12
  -1 -10   6 17151.9 976.582   7
  -1 -10   6 15435.8 858.431  12
  -1 -10   7 20303.1 1067.32   7
  -1 -10   8 15285.3 902.340   7
  -1 -10   8 13953.2 675.847   8
  -1 -10   9 4663.09 488.792   7
  -1 -10   9 5422.60 433.305   8
  -1 -10  10 10349.5 628.680   7
  -1 -10  10 9267.53 523.092   8
  -1 -10  11 13078.5 556.027   7
  -1 -10  11 13531.1 559.804   8
  -1 -10  12 14049.1 451.317   8
  -1  -9  -4 8233.88 348.416  16
  -1  -9  -3 18415.0 671.825  16
  -1  -9  -2 6549.20 483.203  16
  -1  -9  -1 8515.02 596.705  12
  -1  -9  -1 9159.80 600.366  16
  -1  -9   0 8834.70 610.340  13
  -1  -9   0 8699.72 673.318  12
  -1  -9   0 8804.78 606.673  16
  -1  -9   1 13494.4 743.923  13
  -1  -9   1 14337.6 901.436  12
  -1  -9   1 13973.7 757.614  16
  -1  -9   2 2436.81 356.971   7
  -1  -9   2 2586.69 431.860  12
  -1  -9   2 2615.01 359.587  16
  -1  -9   3 851.447 243.749  12
  -1  -9   3 781.384 250.223   7
  -1  -9   3 1093.23 250.955  16
  -1  -9   4 12071.3 812.324   7
  -1  -9   4 11514.8 805.067  12
  -1  -9   4 12620.7 720.178  16
  -1  -9   5 2685.15 408.579  12
  -1  -9   5 2476.52 383.623   7
  -1  -9   5 3621.16 848.393   5
  -1  -9   6 1769.06 316.313  12
  -1  -9   6 1712.24 349.982   7
  -1  -9   7 20809.7 1101.81   7
  -1  -9   8 7291.53 660.090   7
  -1  -9   9 2096.01 367.804   7
  -1  -9  10 918.886 231.307   7
  -1  -9  10 1028.68 246.632   8
  -1  -9  11 115.936 117.729   7
  -1  -9  11 393.285 174.588   8
  -1  -9  12 1689.25 207.586   8
  -1  -8  -5 4254.08 274.042  16
  -1  -8  -4 347.773 114.757  15
  -1  -8  -3 17406.0 658.676  15
  -1  -8  -2 22986.2 796.327  15
  -1  -8  -1 8975.26 658.616  13
  -1  -8  -1 8747.26 656.458  12
  -1  -8   0 7631.77 584.362  13
  -1  -8   0 8209.11 661.014  12
  -1  -8   0 6967.71 544.816  16
  -1  -8   0 6631.49 1002.62   4
  -1  -8   1 44100.8 1332.38  13
  -1  -8   1 47378.9 1570.88  12
  -1  -8   1 47307.6 1369.25  16
  -1  -8   1 45067.3 2434.06   4
  -1  -8   2 69431.9 1767.98   7
  -1  -8   2 70401.4 1905.33  12
  -1  -8   2 66575.0 3217.49   5
  -1  -8   2 67591.2 1598.44  16
  -1  -8   2 65514.3 2805.08   4
  -1  -8   3 8917.53 652.419   7
  -1  -8   3 7801.32 638.674  12
  -1  -8   3 8344.84 1144.23   5
  -1  -8   3 9499.09 594.831  16
  -1  -8   4 26450.8 1133.98   7
  -1  -8   4 24798.4 1099.98  12
  -1  -8   4 23356.0 1874.79   5
  -1  -8   4 26257.5 967.819  16
  -1  -8   5 39109.5 1415.87   7
  -1  -8   5 37430.2 1316.13  12
  -1  -8   5 37120.4 2381.80   5
  -1  -8   6 16595.7 950.555   7
  -1  -8   6 13116.9 1447.22   5
  -1  -8   7 27552.0 1219.47   7
  -1  -8   7 26864.1 2085.91   5
  -1  -8   8 60954.1 1819.06   7
  -1  -8   9 20343.8 1013.15   7
  -1  -8  10 8199.01 597.266   7
  -1  -8  10 7787.93 576.479   8
  -1  -8  11 16476.1 743.203   8
  -1  -8  12 17767.9 636.787   8
  -1  -8  13 3631.66 196.284   8
  -1  -7  -6 10838.9 380.555  15
  -1  -7  -5 4155.57 316.001  15
  -1  -7  -4 44409.2 1316.37   6
  -1  -7  -4 42060.4 1091.37  15
  -1  -7  -3 72246.0 1772.32   6
  -1  -7  -3 70838.3 1497.59  15
  -1  -7  -2 5897.34 550.913  13
  -1  -7  -2 5481.72 501.334   6
  -1  -7  -2 5374.79 416.263  15
  -1  -7  -1 10875.0 706.290  13
  -1  -7  -1 11582.3 753.701  12
  -1  -7  -1 11537.7 1243.80   4
  -1  -7   0 4134.96 427.976  13
  -1  -7   0 5379.48 520.652  12
  -1  -7   0 4668.33 753.946   4
  -1  -7   1 27095.7 1917.17   5
  -1  -7   1 29286.3 1808.88   4
  -1  -7   2 24611.0 1780.90   5
  -1  -7   2 24074.7 1557.75   4
  -1  -7   3 17871.7 1496.65   5
  -1  -7   4 367.546 323.523   5
  -1  -7   5 343.172 263.280   5
  -1  -7   6 5753.09 895.547   5
  -1  -7   7 87.4756 168.879   5
  -1  -7   8 315.884 306.550   5
  -1  -7   9 4909.54 509.674   7
  -1  -7  10 280.544 193.868   8
  -1  -7  11 3070.74 356.741   8
  -1  -7  12 4882.56 355.933   8
  -1  -6  -7 1458.30 156.112  15
  -1  -6  -6 5773.57 434.466   6
  -1  -6  -6 5390.70 371.400  15
  -1  -6  -5 8444.35 599.563   6
  -1  -6  -5 8257.66 513.144  15
  -1  -6  -4 3319.69 415.257   6
  -1  -6  -4 3717.07 371.734  15
  -1  -6  -3 28694.9 1185.77  13
  -1  -6  -3 26275.4 1078.14   6
  -1  -6  -3 26663.0 938.406  15
  -1  -6  -3 27209.4 1961.28   4
  -1  -6  -2 26877.9 1094.36  13
  -1  -6  -2 25686.7 878.429  15
  -1  -6  -2 25598.8 1827.82   4
  -1  -6  -2 28118.1 1073.13   6
  -1  -6  -1 15984.7 1365.76   4
  -1  -6   0 69313.0 2634.14   4
  -1  -6   1 21160.4 1524.49   5
  -1  -6   1 22556.1 1421.36   4
  -1  -6   2 45884.1 2179.23   5
  -1  -6   2 46072.4 1925.57   4
  -1  -6   3 73952.1 2731.24   5
  -1  -6   4 33107.5 1859.30   5
  -1  -6   5 2527.58 367.629   2
  -1  -6   5 2419.06 542.500   5
  -1  -6   6 52206.9 1941.93   2
  -1  -6   6 49973.6 2415.99   5
  -1  -6   7 47648.0 2078.00   2
  -1  -6   8 20918.5 1523.13   2
  -1  -6   9 38393.3 2187.89   2
  -1  -6  10 35477.5 1191.85   8
  -1  -6  11 13997.9 699.157   8
  -1  -6  12 10975.2 505.944   8
  -1  -5  -8 11983.3 390.855  15
  -1  -5  -7 7743.55 479.240   6
  -1  -5  -7 7498.27 426.639  15
  -1  -5  -6 4696.14 395.976  19
  -1  -5  -6 5162.77 467.397   6
  -1  -5  -6 4705.42 400.360  15
  -1  -5  -5 3842.94 425.670   6
  -1  -5  -5 3796.56 390.627  15
  -1  -5  -5 3442.29 370.858  19
  -1  -5  -4 1521.01 264.311  19
  -1  -5  -4 1799.15 300.146   6
  -1  -5  -4 1710.28 268.136  15
  -1  -5  -4 923.560 417.137   4
  -1  -5  -3 17695.4 883.168  13
  -1  -5  -3 16699.5 816.306   6
  -1  -5  -3 16788.4 722.569  15
  -1  -5  -3 14780.5 1372.59   4
  -1  -5  -2 12047.4 1150.14   4
  -1  -5  -1 22387.2 1451.65   4
  -1  -5   0 515.011 268.941   4
  -1  -5   1 102.168 246.226   5
  -1  -5   1 276.562 256.928   4
  -1  -5   2 57.1408 213.619   5
  -1  -5   2 188.478 165.901   4
  -1  -5   3 1268.61 392.336   5
  -1  -5   3 1272.05 183.523   2
  -1  -5   4 204.257 155.106   2
  -1  -5   4 60.6149 223.689   5
  -1  -5   5 27744.6 1249.37   2
  -1  -5   6 8581.97 800.421   2
  -1  -5   7 9199.09 924.448   2
  -1  -5   8 132.180 216.937   2
  -1  -5   9 4681.00 802.162   2
  -1  -5  10 6700.50 527.406   8
  -1  -5  11 425.638 174.569   8
  -1  -5  12 5102.97 320.158   8
  -1  -4  -9 3897.87 196.690  15
  -1  -4  -8 5166.97 373.703   6
  -1  -4  -8 5041.17 339.840  15
  -1  -4  -7 25052.9 961.276   6
  -1  -4  -7 23601.1 842.380  15
  -1  -4  -6 3987.32 419.682  19
  -1  -4  -6 3902.18 435.705   6
  -1  -4  -6 3950.99 388.259  15
  -1  -4  -5 1350.92 276.831  19
  -1  -4  -5 1526.14 298.844   6
  -1  -4  -5 1903.31 505.082   4
  -1  -4  -4 30136.0 1147.22  13
  -1  -4  -4 27776.7 1004.91  19
  -1  -4  -4 27673.9 1829.95   4
  -1  -4  -3 40401.8 2066.04   4
  -1  -4  -2 33952.4 1722.03   4
  -1  -4  -1 102012. 2723.65   4
  -1  -4   0 22966.7 1297.98   5
  -1  -4   0 22148.0 1169.92   4
  -1  -4   1 75083.4 2217.15   5
  -1  -4   1 74923.2 1994.66   4
  -1  -4   2 19930.4 491.246   2
  -1  -4   2 20541.0 1151.04   5
  -1  -4   2 20358.6 996.884   4
  -1  -4   3 33664.0 969.244   2
  -1  -4   3 31021.3 1398.96   5
  -1  -4   4 117513. 2216.95   2
  -1  -4   5 57853.0 1811.66   2
  -1  -4   6 26878.6 1415.40   2
  -1  -4   7 21414.0 1415.11   2
  -1  -4   8 12270.8 1183.97   2
  -1  -4   9 38963.3 2257.18   2
  -1  -4   9 37081.2 1182.09   8
  -1  -4  10 13589.5 698.414   8
  -1  -4  11 16967.0 683.438   8
  -1  -3  -9 1562.93 201.323   6
  -1  -3  -9 1148.46 170.818  15
  -1  -3  -8 4868.35 424.518   6
  -1  -3  -8 5740.90 409.285  15
  -1  -3  -7 2596.00 359.326  19
  -1  -3  -7 2595.19 323.366  15
  -1  -3  -6 2438.66 344.452  19
  -1  -3  -6 2509.79 333.822  11
  -1  -3  -6 2587.52 322.041  10
  -1  -3  -5 2509.73 319.823  19
  -1  -3  -5 2081.90 286.866  11
  -1  -3  -5 2118.42 269.259  10
  -1  -3  -5 2593.48 557.870   4
  -1  -3  -4-242.437 213.047   4
  -1  -3  -3 129.123 207.493   4
  -1  -3  -2 4747.71 595.128   4
  -1  -3  -1 4910.68 551.038   4
  -1  -3   0 4951.34 493.408   4
  -1  -3   0 5242.91 390.297   1
  -1  -3   0 5232.23 554.710   5
  -1  -3   1 80.5806 145.056   4
  -1  -3   1 90.8606 175.970   5
  -1  -3   2 999999. 5887.62   4
  -1  -3   2 992677. 4034.96   2
  -1  -3   3 22957.1 831.127   2
  -1  -3   4 4947.52 489.300   2
  -1  -3   5 8295.74 713.560   2
  -1  -3   6 10161.1 886.785   2
  -1  -3   7 41394.3 1969.14   2
  -1  -3   8 34848.6 1998.87   2
  -1  -3   9 53119.9 1351.04   8
  -1  -3   9 58808.9 2765.64   2
  -1  -2 -10 12112.7 417.292   6
  -1  -2 -10 12759.6 389.330  15
  -1  -2  -9 17394.5 705.825   6
  -1  -2  -9 17348.5 639.096  15
  -1  -2  -8 41784.7 1170.37  10
  -1  -2  -7 7328.49 544.223  11
  -1  -2  -7 8087.36 556.487  10
  -1  -2  -7 8140.71 612.349  19
  -1  -2  -6 32251.6 1105.57  11
  -1  -2  -6 36363.6 1232.94  19
  -1  -2  -6 35022.0 1112.21  10
  -1  -2  -6 32648.1 2008.64   4
  -1  -2  -5 122059. 3579.89   4
  -1  -2  -4 46586.3 1990.98   4
  -1  -2  -3 104456. 2656.81   4
  -1  -2  -2 88623.8 1303.14   3
  -1  -2  -2 85716.9 2121.12   4
  -1  -2  -1 76849.5 1277.95   3
  -1  -2  -1 79125.3 1797.09   4
  -1  -2   0 1106.50 190.970   1
  -1  -2   1 817566. 2290.14   2
  -1  -2   1 811873. 4578.39   1
  -1  -2   2 924211. 5352.70   1
  -1  -2   2 937358. 5271.80   5
  -1  -2   3 2581.63 317.684   2
  -1  -2   4 76729.9 1859.32   2
  -1  -2   5 61317.1 1925.41   2
  -1  -2   6 58173.9 2109.04   2
  -1  -2   7 6271.32 783.907   2
  -1  -2   8 715.127 316.720   2
  -1  -2   9 14712.9 1402.06   2
  -1  -1 -10 3206.07 273.165   6
  -1  -1 -10 3647.40 261.015  15
  -1  -1  -9 188.032 153.759  11
  -1  -1  -9 134.088 122.224  15
  -1  -1  -8 200.447 148.413  19
  -1  -1  -8 423.053 147.061  11
  -1  -1  -8 108.942 150.736  10
  -1  -1  -7 1866.19 317.051  19
  -1  -1  -7 1971.68 308.118  11
  -1  -1  -7 2208.56 322.444  10
  -1  -1  -7 1617.70 454.083   4
  -1  -1  -6 200.422 125.961  19
  -1  -1  -6 510.350 165.144  11
  -1  -1  -6 612.213 261.631   4
  -1  -1  -5 192.541 197.591   4
  -1  -1  -3 20334.5 741.728   3
  -1  -1  -2 15148.3 596.393   3
  -1  -1  -2 14545.0 759.289   4
  -1  -1  -1 606.831 137.348   3
  -1  -1  -1 799.082 191.226   4
  -1  -1   0 18542.7 589.781   3
  -1  -1   0 19722.2 601.632   4
  -1  -1   1 125370. 1510.83   5
  -1  -1   1 128958. 1427.54   4
  -1  -1   2 191006. 2142.58   1
  -1  -1   2 186238. 2005.79   2
  -1  -1   3 10114.2 600.804   2
  -1  -1   4 23242.3 1069.66   2
  -1  -1   5 82862.8 2272.93   2
  -1  -1   6 47835.3 1932.15   2
  -1  -1   7 16216.3 1259.81   2
  -1  -1   8 40625.4 2161.53   2
  -1   0 -11 6679.23 297.911   6
  -1   0 -10 5636.80 404.187  11
  -1   0 -10 6330.03 374.114  15
  -1   0  -9 18734.4 844.784  11
  -1   0  -9 20576.2 867.545  10
  -1   0  -8 17395.5 848.698  11
  -1   0  -8 18587.1 859.951  10
  -1   0  -8 17148.7 883.599  19
  -1   0  -7 59170.4 1519.00  11
  -1   0  -7 58288.8 1566.54  19
  -1   0  -7 60036.5 1501.19  10
  -1   0  -7 60181.9 2561.26   4
  -1   0   0 28657.8 658.331   3
  -1   0   0 28595.4 466.534   4
  -1   0   1 224396. 1790.94   3
  -1   0   1 221319. 1724.58   2
  -1   0   2 92705.8 1455.51   2
  -1   0   2 91436.4 1256.56   1
  -1   0   3 396554. 3730.85   2
  -1   0   4 68565.9 1838.16   2
  -1   0   5 1508.00 375.430   2
  -1   0   6 3777.85 576.640   2
  -1   0   7 21315.6 1466.88   2
  -1   0   8 30398.9 1858.77   2
  -1   1 -11-148.074 89.5845  14
  -1   1 -11 15.4959 65.0696  15
  -1   1 -10 419.178 167.065  11
  -1   1 -10 509.529 205.247  10
  -1   1  -9 3459.48 385.019  10
  -1   1  -9 3717.61 410.426  11
  -1   1  -8 14019.2 789.470  19
  -1   1  -8 13672.6 761.290  11
  -1   1  -8 14236.7 761.999  10
  -1   1  -7 4685.86 440.757  19
  -1   1  -7 4031.15 394.754  11
  -1   1  -7 4352.85 401.565  10
  -1   1   1 15739.8 426.566   3
  -1   1   2 396955. 1996.44   1
  -1   1   2 395302. 3175.75   2
  -1   1   3 237103. 3014.20   2
  -1   1   4 83007.5 2083.21   2
  -1   1   5 285.386 208.861   2
  -1   1   6 59694.6 2230.14   2
  -1   1   7 4006.19 660.564   2
  -1   2 -11 7260.57 438.095  11
  -1   2 -11 6817.65 309.860  15
  -1   2 -10 27550.0 1001.76  11
  -1   2 -10 27089.6 968.260  10
  -1   2  -9 28572.1 1092.90  11
  -1   2  -9 29778.0 1088.59  10
  -1   2  -8 19784.8 899.607  11
  -1   2  -8 20103.7 888.489  10
  -1   2   2 156135. 2139.57   2
  -1   2   3 252.667 181.456   2
  -1   2   4 103147. 2405.97   2
  -1   2   5 42665.8 1742.95   2
  -1   2   6 2296.14 452.430   2
  -1   3 -12 273.031 93.2082  11
  -1   3 -11 2369.12 284.846  11
  -1   3 -10 92.9462 148.629  11
  -1   3 -10 51.7747 140.512  10
  -1   3  -9 6997.69 549.631  11
  -1   3  -9 7080.24 536.858  10
  -1   3  -8 28690.3 1063.19  11
  -1   3  -8 27505.7 1014.17  10
  -1   3   1 102157. 1615.85   2
  -1   3   2 97486.5 1839.66   2
  -1   3   3 235791. 3303.12   2
  -1   3   4 237622. 3731.47   2
  -1   4 -12 10315.1 433.443  11
  -1   4 -11 1760.49 273.719  11
  -1   4 -11 1898.71 254.526  10
  -1   4 -10 917.230 242.141  11
  -1   4 -10 1143.21 235.084  10
  -1   4  -9 21340.3 933.864  11
  -1   4  -9 22242.6 914.739  10
  -1   4  -8 31207.5 1094.70  11
  -1   4  -8 30098.7 1030.12  10
  -1   4   1 743.513 170.850   2
  -1   4   2 2428.67 323.262   2
  -1   5 -12 215.006 104.517  11
  -1   5 -11 169.939 172.540  11
  -1   5 -11 440.677 142.727  10
  -1   5 -10 6161.98 495.937  11
  -1   5 -10 7703.43 499.084  10
  -1   5  -9 14400.1 766.518  11
  -1   5  -9 15266.3 726.179  10
  -1   5  -8 20448.5 882.093  11
  -1   5  -8 20254.8 818.344  10
  -1   5   0 10183.9 562.005   2
  -1   6 -12 11353.0 460.597  11
  -1   6 -11 5482.80 415.377  11
  -1   6 -10 2427.08 316.040  11
  -1   6  -9 2851.39 351.672  11
  -1   6  -8 6815.40 511.036  11
  -1   6  -7 903.308 198.355  11
  -1   7 -12 12277.7 451.154  11
  -1   7 -11 21782.5 762.210  11
  -1   7 -10 4266.67 394.511  11
  -1   7  -9 24044.9 948.611  11
  -1   7  -8 24595.1 948.771  11
  -1   7  -7 40689.5 1177.44  11
  -1   8 -12 3431.44 212.270  11
  -1   8 -11 978.472 172.891  11
  -1   8 -10 19018.7 759.935  11
  -1   8  -9 8476.41 548.482  11
  -1   8  -8 4407.10 400.903  11
  -1   8  -7 122.666 102.383  11
  -1   8  -6 655.200 153.613  11
  -1   9 -11 565.919 120.879  11
  -1   9 -10 728.172 164.963  11
  -1   9  -9 29120.4 931.970  11
  -1   9  -8 22419.1 847.796  11
  -1   9  -7 16386.6 738.034  11
  -1   9  -6 26660.8 919.434  11
  -1  10 -10 1157.36 162.718  11
  -1  10  -9 8503.97 449.446  11
  -1  10  -8 1802.71 225.719  11
   0 -13   3 5718.59 328.532  12
   0 -13   4 13275.7 535.872  12
   0 -13   5 3423.05 285.976  12
   0 -13   6 4723.55 297.627   7
   0 -13   6 4685.67 291.214  12
   0 -13   7 5325.52 326.895   7
   0 -13   8 4267.14 281.579   7
   0 -12   1 5029.07 351.793  12
   0 -12   2-42.4188 162.489  12
   0 -12   3 420.717 217.398  12
   0 -12   4 14353.8 634.587   7
   0 -12   4 16559.6 792.969  12
   0 -12   5 3581.73 364.046   7
   0 -12   5 3191.86 376.521  12
   0 -12   6 180.225 171.695  12
   0 -12   6-127.337 177.195   7
   0 -12   7 759.637 234.074   7
   0 -12   8 55.0412 153.640   7
   0 -12   9-104.959 141.620   7
   0 -12  10 768.670 140.152   7
   0 -11  -2 5500.28 248.550  16
   0 -11  -1 1216.13 175.306  16
   0 -11   0 6296.59 453.115  12
   0 -11   0 7630.43 446.512  16
   0 -11   1 9707.98 634.210  12
   0 -11   1 8282.78 500.028  16
   0 -11   2 12734.0 781.804  12
   0 -11   2 12756.8 650.579  16
   0 -11   3 21440.9 887.895   7
   0 -11   3 23965.4 1089.20  12
   0 -11   4 27766.5 1088.42   7
   0 -11   4 28253.9 1177.16  12
   0 -11   5 19562.4 963.268   7
   0 -11   5 20441.7 980.889  12
   0 -11   6 7642.06 631.138   7
   0 -11   6 8463.87 597.503  12
   0 -11   7 4531.48 496.400   7
   0 -11   8 9473.87 668.358   7
   0 -11   8 9324.86 494.761   8
   0 -11   9 9709.57 625.964   7
   0 -11   9 9061.63 478.746   8
   0 -11  10 23393.3 810.964   7
   0 -11  10 22953.0 683.791   8
   0 -11  11 796.290 128.838   7
   0 -11  11 1282.37 149.981   8
   0 -10  -3 2986.15 235.078  16
   0 -10  -2 435.202 142.100  16
   0 -10  -1 899.236 200.575  12
   0 -10  -1 706.748 205.123  16
   0 -10   0 1443.26 313.929  12
   0 -10   0 1446.02 260.429  16
   0 -10   1 200.479 252.663  12
   0 -10   1 641.352 220.907  16
   0 -10   2 2322.51 408.023  12
   0 -10   2 1948.74 311.594  16
   0 -10   3-75.4757 232.741  12
   0 -10   3-112.552 158.069   7
   0 -10   3-295.743 168.779  16
   0 -10   4 739.838 306.062  12
   0 -10   4 374.874 240.507   7
   0 -10   5 2537.19 396.175  12
   0 -10   5 2184.12 381.687   7
   0 -10   6 3409.29 427.131  12
   0 -10   6 3632.01 474.600   7
   0 -10   7 9012.11 728.205   7
   0 -10   8 6228.94 601.129   7
   0 -10   9 4025.86 452.181   7
   0 -10  10 355.181 160.850   7
   0 -10  10 883.304 202.799   8
   0 -10  11 19170.0 643.229   7
   0 -10  11 19043.7 640.149   8
   0 -10  12 3747.27 219.581   8
   0  -9  -4 8844.75 436.042  16
   0  -9  -3 7618.03 483.461  16
   0  -9  -3 7715.86 409.682  15
   0  -9  -2 12931.1 673.317  12
   0  -9  -2 11667.2 647.030  16
   0  -9  -2 10909.2 528.877  15
   0  -9  -1 21196.8 981.720  12
   0  -9  -1 21443.0 915.617  16
   0  -9  -1 20353.1 742.506  15
   0  -9   0 25374.3 1150.59  12
   0  -9   0 26167.1 1027.37  16
   0  -9   1 3750.96 492.455  12
   0  -9   1 2942.25 357.968  16
   0  -9   2 13151.1 776.470   7
   0  -9   2 13335.5 883.021  12
   0  -9   2 11913.9 1351.99   5
   0  -9   2 13472.9 731.818  16
   0  -9   3 30146.8 1211.15   7
   0  -9   3 29116.3 1275.53  12
   0  -9   3 34269.6 2331.99   5
   0  -9   3 32424.8 1116.38  16
   0  -9   4 13994.8 860.226   7
   0  -9   4 14645.7 892.192  12
   0  -9   4 15875.6 786.515  16
   0  -9   4 15595.8 1583.45   5
   0  -9   5 37224.3 1418.02   7
   0  -9   5 35880.2 1339.81  12
   0  -9   5 34208.8 2405.02   5
   0  -9   6 94747.3 2289.02   7
   0  -9   6 95501.9 2062.83  12
   0  -9   6 101805. 4224.54   5
   0  -9   7 13174.5 878.577   7
   0  -9   8 10373.1 776.658   7
   0  -9   9 8416.74 673.288   7
   0  -9  10 9043.03 620.526   7
   0  -9  11 8846.58 481.027   7
   0  -9  11 8587.45 489.570   8
   0  -9  12 3096.13 237.876   8
   0  -8  -6 197.053 71.5964  16
   0  -8  -5 1953.64 203.293  15
   0  -8  -4 110.165 129.473  15
   0  -8  -3 796.066 186.353  15
   0  -8  -2 3581.11 417.158  12
   0  -8  -2 3284.56 326.666  15
   0  -8  -1 432.151 170.479  13
   0  -8  -1 458.025 215.414  12
   0  -8  -1 66.2332 108.315  15
   0  -8   0 874.238 226.720  13
   0  -8   0 975.193 317.602  12
   0  -8   0 1557.21 464.924   4
   0  -8   1 3599.58 455.226  12
   0  -8   1 3188.27 724.434   5
   0  -8   1 3908.01 395.472  16
   0  -8   1 3598.57 683.404   4
   0  -8   2 288.579 203.689  12
   0  -8   2 920.935 356.765   5
   0  -8   2 639.401 169.486  16
   0  -8   2 349.636 294.143   4
   0  -8   3 2039.77 351.547  12
   0  -8   3 1823.15 513.348   5
   0  -8   4 16374.7 881.733   7
   0  -8   4 14324.9 1439.74   5
   0  -8   5 7612.71 1094.08   5
   0  -8   6 7495.12 1099.25   5
   0  -8   7 10593.5 1331.22   5
   0  -8  10 17466.0 859.635   7
   0  -8  11 16958.4 714.194   8
   0  -8  12 8115.99 393.991   8
   0  -7  -7 11991.0 382.618  16
   0  -7  -7 12805.1 364.042  15
   0  -7  -6 16198.4 580.741  15
   0  -7  -5 30892.0 1054.96   6
   0  -7  -5 31723.6 943.381  15
   0  -7  -4 23934.2 1010.86   6
   0  -7  -4 23870.3 893.101  15
   0  -7  -3 9842.10 665.021   6
   0  -7  -3 11124.1 619.358  15
   0  -7  -2 26435.3 1087.83  13
   0  -7  -2 27106.3 1097.82  12
   0  -7  -2 25281.3 908.347  15
   0  -7  -2 25456.1 1861.91   4
   0  -7  -2 27829.3 1089.97   6
   0  -7  -1 23487.6 984.816  13
   0  -7  -1 26462.1 1102.82  12
   0  -7  -1 27192.5 1035.94   6
   0  -7  -1 25312.8 862.394  15
   0  -7  -1 25820.6 1795.44   4
   0  -7   0 77397.0 2914.30   4
   0  -7   1 37656.8 2117.44   5
   0  -7   1 40339.9 1966.24   4
   0  -7   2 6149.65 837.599   5
   0  -7   2 5962.65 731.635   4
   0  -7   3 5007.44 787.694   5
   0  -7   4 19815.0 1549.67   5
   0  -7   5 37871.2 2212.50   5
   0  -7   6 39411.0 1785.36   2
   0  -7   6 35532.1 2225.95   5
   0  -7   7 15661.5 1253.31   2
   0  -7   8 20932.6 1538.64   2
   0  -7  11 236.597 187.827   8
   0  -7  12 6714.25 361.187   8
   0  -6  -8-64.0995 48.9588  15
   0  -6  -7 239.142 139.251   6
   0  -6  -7 141.990 109.127  15
   0  -6  -6 922.273 228.571   6
   0  -6  -6 448.251 181.117  15
   0  -6  -5 1559.38 302.678   6
   0  -6  -5 1780.83 289.558  15
   0  -6  -4 12858.8 761.735   6
   0  -6  -4 12890.1 682.778  15
   0  -6  -3 7187.15 555.815   6
   0  -6  -3 7385.87 506.464  15
   0  -6  -3 8091.24 1042.97   4
   0  -6  -2 3490.30 665.625   4
   0  -6  -1 27517.2 1681.33   4
   0  -6   0 72286.7 2691.99   5
   0  -6   0 77163.4 2592.79   4
   0  -6   1 18215.9 1325.65   5
   0  -6   1 19897.5 1225.25   4
   0  -6   2-68.4089 247.365   5
   0  -6   2 83.8078 155.578   4
   0  -6   3 14197.5 1164.37   5
   0  -6   4 40001.0 1401.19   2
   0  -6   4 34956.7 1867.64   5
   0  -6   5 25977.8 1295.70   2
   0  -6   6 61181.4 2248.44   2
   0  -6   7 56156.8 2359.87   2
   0  -6   8 14346.4 1289.26   2
   0  -6  11 11106.1 577.450   8
   0  -6  12 942.141 143.350   8
   0  -5  -8 17962.9 650.330   6
   0  -5  -8 17382.4 583.942  15
   0  -5  -7 15253.0 736.515   6
   0  -5  -7 16802.5 702.931  15
   0  -5  -6 14168.6 792.635   6
   0  -5  -6 14782.4 723.970  15
   0  -5  -5 73906.3 1635.16  19
   0  -5  -5 75646.8 1836.68   6
   0  -5  -5 79287.4 1670.57  15
   0  -5  -4 45774.6 1380.17   6
   0  -5  -4 44011.9 1215.34  15
   0  -5  -4 44499.4 2425.89   4
   0  -5  -3 28653.0 1817.99   4
   0  -5  -2 40554.1 1988.85   4
   0  -5  -1 66891.2 2328.53   4
   0  -5   0 112019. 2925.92   5
   0  -5   0 114082. 2784.51   4
   0  -5   1 73730.0 2307.67   5
   0  -5   1 73306.7 2068.72   4
   0  -5   2 115276. 2883.04   5
   0  -5   2 115245. 1672.51   2
   0  -5   2 115929. 2425.35   4
   0  -5   3 5522.56 453.076   2
   0  -5   4 1793.73 321.169   2
   0  -5   5 6583.99 663.876   2
   0  -5   6 32240.6 1615.96   2
   0  -5   7 26527.1 1633.43   2
   0  -5   8 2945.39 611.501   2
   0  -5  10 2140.40 310.388   8
   0  -5  11 589.929 157.026   8
   0  -4  -9 197.815 120.617   6
   0  -4  -9 135.517 99.2811  15
   0  -4  -8-16.1099 153.202   6
   0  -4  -8-0.64905 139.454  15
   0  -4  -7 4187.22 444.118   6
   0  -4  -7 4365.13 404.328  15
   0  -4  -6 14527.5 765.054  19
   0  -4  -6 15684.8 753.367  15
   0  -4  -5 14954.8 752.212  19
   0  -4  -5 16429.8 751.640  15
   0  -4  -5 15405.0 1434.08   4
   0  -4  -4 33148.0 1935.61   4
   0  -4  -3 25861.9 1570.48   4
   0  -4  -2 86697.2 2573.88   4
   0  -4  -1 4484.74 544.994   4
   0  -4   0 7507.99 681.938   5
   0  -4   0 7718.64 652.461   4
   0  -4   1 37816.4 1444.14   5
   0  -4   1 39187.5 1291.15   4
   0  -4   1 38896.5 767.679   2
   0  -4   2 92439.5 1494.92   2
   0  -4   2 89678.1 1839.98   4
   0  -4   3 4038.55 396.752   2
   0  -4   4 1023.30 256.753   2
   0  -4   5 131810. 2880.32   2
   0  -4   6 28689.6 1521.41   2
   0  -4   7 16510.3 1284.78   2
   0  -4   8 68431.6 2841.85   2
   0  -4   9 44925.3 2448.19   2
   0  -4  10 29947.8 971.099   8
   0  -3 -10 2525.62 204.179   6
   0  -3 -10 2495.94 175.207  15
   0  -3  -9 17274.6 716.148   6
   0  -3  -9 17013.6 628.358  15
   0  -3  -8 18884.2 776.473  15
   0  -3  -7 25946.4 1041.53  19
   0  -3  -7 28466.8 999.423  15
   0  -3  -6 349.580 159.875  19
   0  -3  -6 198.867 108.541  11
   0  -3  -6 208.763 141.265  10
   0  -3  -6 230.990 220.811   4
   0  -3  -5 27871.9 1792.05   4
   0  -3  -4 9997.80 996.260   4
   0  -3  -3 835.965 291.128   4
   0  -3  -2 78064.0 2170.69   4
   0  -3  -1 49495.3 1542.87   5
   0  -3  -1 49475.0 1519.06   4
   0  -3   0 55717.8 1509.15   5
   0  -3   0 56260.8 1416.99   4
   0  -3   1 8596.59 349.056   2
   0  -3   1 9282.21 528.827   4
   0  -3   2 566.422 162.724   2
   0  -3   3 36322.5 1110.30   2
   0  -3   4 34629.4 1288.11   2
   0  -3   5 14815.8 988.950   2
   0  -3   6 2866.12 507.067   2
   0  -3   7 10153.0 1011.96   2
   0  -3   8 358.121 324.437   2
   0  -2 -10 255.188 127.511   6
   0  -2 -10 257.275 111.265  15
   0  -2  -9 12806.1 600.093  15
   0  -2  -9 10903.4 538.076  14
   0  -2  -8 6599.96 538.723  11
   0  -2  -8 7758.23 526.485  15
   0  -2  -7 336.838 183.884  19
   0  -2  -7 348.965 177.126  11
   0  -2  -7 382.106 167.227  10
   0  -2  -7-200.538 271.039   4
   0  -2  -6 32206.4 1090.42  11
   0  -2  -6 30958.1 1091.22  19
   0  -2  -6 31363.7 1025.57  10
   0  -2  -6 31124.2 1916.24   4
   0  -2  -5 15632.1 1252.21   4
   0  -2  -1 402534. 3651.99   5
   0  -2   0 120222. 1758.19   5
   0  -2   1 30907.2 608.718   2
   0  -2   1 32035.2 751.889   4
   0  -2   2 100667. 1507.95   2
   0  -2   3 30579.4 1016.32   2
   0  -2   4 94523.2 2102.86   2
   0  -2   5 4033.52 553.623   2
   0  -2   6 1986.71 431.897   2
   0  -2   7 70258.4 2641.26   2
   0  -2   8 39870.0 2171.28   2
   0  -1 -11 5269.81 298.333   6
   0  -1 -11 3688.83 185.920  15
   0  -1 -10 9154.95 453.830  15
   0  -1 -10 9078.65 473.284  14
   0  -1  -9 20713.4 911.171  11
   0  -1  -9 22018.6 812.832  15
   0  -1  -8 3210.73 400.024  11
   0  -1  -8 3279.32 380.407  10
   0  -1  -7 6997.87 531.783  11
   0  -1  -7 7156.27 554.327  19
   0  -1  -7 7390.67 529.611  10
   0  -1  -7 6804.18 941.303   4
   0  -1   0 751.576 109.999   5
   0  -1   1 3965.09 213.419   2
   0  -1   2 10120.5 491.073   2
   0  -1   3 9969.18 604.077   2
   0  -1   4 89.1225 211.069   2
   0  -1   5 102922. 2556.72   2
   0  -1   6 23268.8 1376.60   2
   0  -1   7 25518.6 1602.94   2
   0  -1   8 6008.36 857.918   2
   0   0 -11 6299.39 294.979  15
   0   0 -11 5351.71 326.831  14
   0   0 -10 14071.2 714.229  11
   0   0 -10 13759.6 583.914  15
   0   0  -9 14428.3 788.189  11
   0   0  -9 14401.5 763.984  10
   0   0  -8 19999.6 926.910  11
   0   0  -8 20658.2 904.051  10
   0   0  -7 85879.9 1768.72  11
   0   0  -7 80699.7 1774.93  19
   0   0  -7 85487.9 1724.52  10
   0   0   1 225777. 1608.71   2
   0   0   2 8839.91 465.696   2
   0   0   3 56806.1 1418.61   2
   0   0   4 84724.1 2024.94   2
   0   0   5 50841.7 1813.71   2
   0   0   6 36130.6 1720.93   2
   0   0   7 80007.4 2808.10   2
   0   0   8 20077.6 1505.14   2
   0   1 -12 6873.57 302.626   6
   0   1 -11 6636.40 446.734  11
   0   1 -10 8652.83 586.499  11
   0   1 -10 8435.70 568.521  10
   0   1  -9 240.288 180.087  11
   0   1  -9 68.6784 162.871  10
   0   1  -8 5990.13 497.810  11
   0   1  -8 5702.08 475.449  10
   0   1   1 5098.80 266.894   2
   0   1   2 200931. 2249.48   2
   0   1   3 14040.7 726.656   2
   0   1   4 36482.9 1352.84   2
   0   1   5 18245.2 1097.19   2
   0   1   6 25358.1 1454.70   2
   0   2 -12 1244.10 172.416  14
   0   2 -11 22342.0 844.411  11
   0   2 -10 24290.2 991.352  11
   0   2 -10 23198.5 933.763  10
   0   2  -9 23130.4 990.869  11
   0   2  -9 23756.2 969.410  10
   0   2  -8 42423.7 1273.40  11
   0   2  -8 42145.4 1238.48  10
   0   2   1 402927. 2455.38   2
   0   2   2 330647. 2976.77   2
   0   2   3 15849.4 793.211   2
   0   2   4 842.730 238.388   2
   0   2   5 16607.5 1048.40   2
   0   3 -12 707.157 153.841  11
   0   3 -11 1793.14 274.851  11
   0   3 -10 1078.90 252.238  11
   0   3 -10 987.839 239.719  10
   0   3  -9 2075.98 311.976  11
   0   3  -9 1548.18 269.751  10
   0   3  -8-73.6545 126.261  11
   0   3  -8-343.567 153.958  10
   0   3   0 57170.0 780.528   2
   0   3   1 52029.4 933.968   2
   0   3   2 81336.3 1483.14   2
   0   3   3 929.887 197.250   2
   0   4 -12 10283.9 498.678  11
   0   4 -11 22863.3 883.923  11
   0   4 -10 30539.0 1097.36  11
   0   4 -10 28447.1 1008.12  10
   0   4  -9 47489.0 1372.65  11
   0   4  -9 47592.4 1297.15  10
   0   4  -8 69053.4 1566.15  11
   0   4  -8 64243.7 1435.00  10
   0   4   0 7312.82 289.927   2
   0   5 -13 334.780 85.8333  14
   0   5 -12 620.950 152.373  11
   0   5 -11 578.319 178.325  11
   0   5 -10 2399.19 334.679  11
   0   5 -10 2359.59 295.760  10
   0   5  -9 4812.68 439.826  11
   0   5  -8 2778.12 317.796  11
   0   6 -13 8493.53 314.593  14
   0   6 -12 1193.54 185.575  11
   0   6 -11 11236.6 600.615  11
   0   6 -10 37335.4 1167.84  11
   0   6  -9 26258.6 982.510  11
   0   6  -8 15026.9 716.475  11
   0   7 -12 6471.27 356.497  11
   0   7 -11 521.069 160.398  11
   0   7 -10 1302.97 235.772  11
   0   7  -9 10326.9 612.478  11
   0   7  -8 21541.1 851.606  11
   0   8 -12 7266.61 319.483  11
   0   8 -11 17304.2 638.653  11
   0   8 -10 16908.5 709.462  11
   0   8  -9 16915.7 737.554  11
   0   8  -8 7325.35 485.359  11
   1 -13   2 18.5857 75.6912  12
   1 -13   3 1197.08 191.339  12
   1 -13   4 5212.19 365.159  12
   1 -13   5 13791.3 547.664  12
   1 -13   6 4516.05 293.498   7
   1 -13   6 3768.89 251.235  12
   1 -13   7 2683.32 240.016   7
   1 -13   8 3716.82 252.794   7
   1 -12   0 17526.4 560.341  12
   1 -12   1 19784.4 751.118  12
   1 -12   2 5717.66 472.743  12
   1 -12   3 10079.3 642.756  12
   1 -12   4 24885.2 839.499   7
   1 -12   4 26341.3 1013.35  12
   1 -12   5 7602.40 511.626   7
   1 -12   5 8071.71 559.735  12
   1 -12   6 7946.02 546.369   7
   1 -12   6 9264.99 537.778  12
   1 -12   7 7818.73 540.727   7
   1 -12   8 3602.07 352.594   7
   1 -12   9 1454.79 215.814   7
   1 -12  10 2969.51 221.765   7
   1 -11  -2-15.5186 73.6755  16
   1 -11  -1 780.386 163.805  12
   1 -11  -1 938.114 158.758  16
   1 -11   0 2704.01 349.537  12
   1 -11   0 3261.59 303.563  16
   1 -11   1 7888.98 604.821  12
   1 -11   1 8158.28 492.489  16
   1 -11   2 11927.6 793.672  12
   1 -11   2 13105.6 649.220  16
   1 -11   3 3123.09 363.872   7
   1 -11   3 3825.60 490.506  12
   1 -11   4 2948.20 427.200  12
   1 -11   4 2435.24 338.916   7
   1 -11   5 5900.72 535.344   7
   1 -11   5 6118.02 549.435  12
   1 -11   6 3934.70 413.914  12
   1 -11   6 3737.40 462.767   7
   1 -11   7 22222.8 1023.43   7
   1 -11   8 6901.81 573.765   7
   1 -11   9 19016.3 825.525   7
   1 -11  10 390.125 138.063   7
   1 -11  10 841.672 155.094   8
   1 -11  11 476.578 93.1137   8
   1 -10  -3 16183.4 561.072  16
   1 -10  -2 1956.30 244.459  16
   1 -10  -2 2291.20 231.929  15
   1 -10  -1 5168.31 466.589  12
   1 -10  -1 5192.32 419.090  16
   1 -10  -1 5385.94 372.406  15
   1 -10   0 9153.81 689.486  12
   1 -10   0 10057.2 597.729  16
   1 -10   1 2528.37 436.420  12
   1 -10   1 2347.58 310.328  16
   1 -10   2 31131.0 1322.10  12
   1 -10   2 33106.9 1099.80  16
   1 -10   3 21259.5 1000.23   7
   1 -10   3 21079.1 1090.14  12
   1 -10   3 24152.6 946.195  16
   1 -10   4 7188.16 617.954   7
   1 -10   4 5741.17 580.277  12
   1 -10   5 405.313 229.547  12
   1 -10   5 534.969 248.203   7
   1 -10   6 1340.09 275.527  12
   1 -10   6 1521.59 341.872   7
   1 -10   7 692.594 299.901   7
   1 -10   8 2050.27 382.311   7
   1 -10   9 8419.79 625.319   7
   1 -10  10 817.719 201.327   7
   1 -10  11 690.260 139.914   7
   1 -10  11 275.636 104.105   8
   1  -9  -5 6718.36 311.466  16
   1  -9  -5 6385.91 286.001  15
   1  -9  -4 10899.9 516.628  16
   1  -9  -4 11268.8 488.173  15
   1  -9  -3 2205.49 291.581  16
   1  -9  -3 1701.72 227.355  15
   1  -9  -2 252.758 182.594  12
   1  -9  -2-135.804 139.365  16
   1  -9  -2 170.788 125.375  15
   1  -9  -1 2775.24 405.184  12
   1  -9  -1 3190.70 363.734  16
   1  -9  -1 2783.80 311.991  15
   1  -9   0 16466.0 948.841  12
   1  -9   0 17281.6 823.164  16
   1  -9   0 18147.5 747.234  15
   1  -9   1 20388.4 1070.08  12
   1  -9   1 19469.2 854.238  16
   1  -9   2 13143.9 759.346   7
   1  -9   2 15539.9 944.656  12
   1  -9   2 16877.3 1606.70   5
   1  -9   2 15744.4 759.134  16
   1  -9   3 39477.8 1373.80   7
   1  -9   3 38019.1 1438.31  12
   1  -9   3 37754.5 2418.15   5
   1  -9   3 35925.1 1128.43  16
   1  -9   4 25623.4 1154.00   7
   1  -9   4 25729.2 1169.70  12
   1  -9   4 25300.3 2013.65   5
   1  -9   5 33262.9 1286.41  12
   1  -9   5 37427.2 2499.43   5
   1  -9  10 648.173 232.703   7
   1  -9  11 607.542 150.211   7
   1  -9  11 632.602 148.029   8
   1  -9  12 5594.90 245.813   8
   1  -8  -6 7298.55 351.304  16
   1  -8  -6 7009.30 334.848  15
   1  -8  -5 14763.9 603.743  15
   1  -8  -4 6595.59 461.311  15
   1  -8  -3 3046.90 344.992  15
   1  -8  -2 36345.9 1289.27  12
   1  -8  -2 34258.4 1080.83  15
   1  -8  -1 9397.83 704.279  12
   1  -8  -1 9442.31 561.955  15
   1  -8  -1 8087.09 1009.90   4
   1  -8   0 396.994 226.989  12
   1  -8   0 677.519 183.913  16
   1  -8   0 294.481 120.429  15
   1  -8   0 380.804 285.446   4
   1  -8   1 11163.1 755.974  12
   1  -8   1 10503.1 1197.09   5
   1  -8   1 9804.66 580.968  16
   1  -8   1 10526.9 1042.93   4
   1  -8   2 9228.76 676.843  12
   1  -8   2 8468.52 1061.71   5
   1  -8   2 8447.38 882.312   4
   1  -8   3 4254.38 813.300   5
   1  -8   4 3739.28 772.944   5
   1  -8   5-321.410 380.942   5
   1  -8   6 1685.02 529.275   5
   1  -8  11 763.708 176.922   8
   1  -8  12 3281.54 202.696   8
   1  -7  -7 3585.54 254.847  15
   1  -7  -6 6909.47 469.748   6
   1  -7  -6 6561.46 423.651  15
   1  -7  -5 5068.78 460.429   6
   1  -7  -5 5074.48 418.650  15
   1  -7  -4 15167.6 805.873   6
   1  -7  -4 16063.3 763.708  15
   1  -7  -3 27041.2 1069.42   6
   1  -7  -3 24966.8 949.899  15
   1  -7  -3 26279.1 1940.76   4
   1  -7  -2 34496.7 1239.08  12
   1  -7  -2 35866.2 1192.70   6
   1  -7  -2 33031.7 1049.15  15
   1  -7  -2 33672.5 2047.97   4
   1  -7  -1 7160.28 895.651   4
   1  -7   0-274.096 269.493   5
   1  -7   0 71.8481 168.196   4
   1  -7   1 43796.8 2167.23   5
   1  -7   1 46186.0 1962.43   4
   1  -7   2 57137.0 2500.68   5
   1  -7   2 63342.1 2159.90   4
   1  -7   3 12153.1 1202.79   5
   1  -7   4 156199. 3155.71   2
   1  -7   4 137940. 4067.89   5
   1  -7   5 135523. 3261.74   2
   1  -7   6 30045.0 1680.84   2
   1  -7   7 38434.1 2057.19   2
   1  -7   7 37759.5 1052.36  14
   1  -7  11 21040.0 722.038   8
   1  -6  -8 28.2244 80.3136  15
   1  -6  -7 359.662 167.918   6
   1  -6  -7 297.221 141.967  15
   1  -6  -6 5941.26 501.083   6
   1  -6  -6 6869.76 497.499  15
   1  -6  -5 2393.20 349.186   6
   1  -6  -5 2055.99 306.932  15
   1  -6  -4 1637.68 295.184   6
   1  -6  -4 1502.55 263.821  15
   1  -6  -4 1579.02 571.171   4
   1  -6  -3 2807.07 341.443   6
   1  -6  -3 2829.49 329.250  15
   1  -6  -2 13965.0 1220.03   4
   1  -6  -1 1627.74 436.674   4
   1  -6   0 4691.61 664.270   5
   1  -6   0 4813.15 619.920   4
   1  -6   1 1147.65 358.581   5
   1  -6   1 1265.20 321.151   4
   1  -6   2 17173.8 1228.83   5
   1  -6   2 18668.2 1034.19   4
   1  -6   2 19010.8 884.240   2
   1  -6   3 86.1468 123.623   2
   1  -6   4 15895.1 1003.49   2
   1  -6   5 15345.5 1092.97   2
   1  -6   6 709.324 289.130   2
   1  -6   7 380.729 229.123   2
   1  -6   7 939.420 190.603  14
   1  -6   8 6971.93 914.613   2
   1  -6  11 5866.91 369.268   8
   1  -5  -9 6107.57 314.429   6
   1  -5  -9 6281.16 291.625  15
   1  -5  -8 7827.10 492.145   6
   1  -5  -8 8435.28 464.089  15
   1  -5  -7 3942.30 410.282   6
   1  -5  -7 3525.24 366.843  15
   1  -5  -6 91079.4 1992.26   6
   1  -5  -6 91197.5 1810.08  15
   1  -5  -5 70408.1 1725.03   6
   1  -5  -5 70132.6 1583.08  15
   1  -5  -5 70130.1 3147.63   4
   1  -5  -4 34889.7 1156.26   6
   1  -5  -4 34684.1 1060.79  15
   1  -5  -4 32620.7 2009.12   4
   1  -5  -3 16845.3 1339.59   4
   1  -5  -2 99908.9 2939.25   4
   1  -5  -1 167887. 3419.78   5
   1  -5  -1 171202. 3459.51   4
   1  -5   0 7435.25 712.870   5
   1  -5   0 7884.51 689.277   4
   1  -5   1 3145.92 495.918   5
   1  -5   1 3954.99 366.980   2
   1  -5   1 3812.81 443.750   4
   1  -5   2 48547.2 1352.78   2
   1  -5   2 46011.0 1377.02   4
   1  -5   3 110663. 2287.56   2
   1  -5   4 69122.4 2019.45   2
   1  -5   5 49347.1 1916.12   2
   1  -5   6 66343.4 2459.31   2
   1  -5   7 65910.3 2683.50   2
   1  -5   8 20039.5 1601.27   2
   1  -5  10 6353.20 450.393   8
   1  -4 -10 1757.18 150.103   6
   1  -4  -9 5937.31 407.186   6
   1  -4  -9 6315.50 372.744  15
   1  -4  -8 7805.44 555.007   6
   1  -4  -8 8026.29 502.458  15
   1  -4  -7 24318.6 928.134  15
   1  -4  -6 485.578 163.460  15
   1  -4  -6 1053.12 386.993   4
   1  -4  -5 23257.0 866.951  15
   1  -4  -5 22025.7 1667.84   4
   1  -4  -4 20477.2 1479.07   4
   1  -4  -3 1109.51 407.374   4
   1  -4  -2 2484.46 454.058   4
   1  -4  -1 650.109 203.890   5
   1  -4  -1 845.377 272.822   4
   1  -4   0 96.6035 159.116   5
   1  -4   0 268.344 185.109   4
   1  -4   1 10835.5 563.949   2
   1  -4   1 10950.7 614.470   4
   1  -4   2 12546.7 665.159   2
   1  -4   3 17167.8 880.730   2
   1  -4   4 20121.7 1085.73   2
   1  -4   5 33324.7 1557.85   2
   1  -4   6 10712.2 981.554   2
   1  -4   7 15118.5 1280.93   2
   1  -4   8 29513.3 1928.37   2
   1  -3 -10 16239.2 593.143   6
   1  -3 -10 16220.2 505.691  15
   1  -3  -9 16126.3 654.251  15
   1  -3  -8 15364.9 715.100  15
   1  -3  -8 13976.8 697.556  14
   1  -3  -7 4581.90 425.897  14
   1  -3  -7 4521.24 417.232  15
   1  -3  -6 29726.5 1080.23  11
   1  -3  -6 31423.2 1085.41  19
   1  -3  -6 32383.6 1027.50  15
   1  -3  -6 30646.2 2001.88   4
   1  -3  -5 74939.5 2864.92   4
   1  -3  -1 99966.8 1862.97   5
   1  -3  -1 98197.4 1967.68   4
   1  -3   0 134880. 2097.43   5
   1  -3   0 131390. 1722.32   2
   1  -3   0 136199. 1955.84   4
   1  -3   1 15919.2 628.126   2
   1  -3   1 15736.8 581.063   4
   1  -3   2 19143.2 781.065   2
   1  -3   3 74945.6 1771.92   2
   1  -3   4 92392.2 2255.93   2
   1  -3   5 104636. 2696.22   2
   1  -3   6 24446.6 1492.09   2
   1  -3   7 31038.6 1823.20   2
   1  -3   8 30401.6 1938.19   2
   1  -2 -11 3788.57 248.516   6
   1  -2 -10 2620.22 255.429  14
   1  -2 -10 2668.53 249.450  15
   1  -2  -9 34.9275 118.600  14
   1  -2  -9 55.2655 123.735  15
   1  -2  -8 4179.57 447.337  11
   1  -2  -8 4870.40 415.970  15
   1  -2  -7 56091.1 1525.15  11
   1  -2  -7 55445.1 1432.57  10
   1  -2  -7 57080.2 2775.68   4
   1  -2  -1 506.430 130.920   5
   1  -2   0 573.721 143.924   2
   1  -2   0 742.529 131.786   4
   1  -2   1 62715.0 1158.53   2
   1  -2   1 64248.4 783.075   4
   1  -2   2 1327.07 251.450   2
   1  -2   3 126273. 2244.08   2
   1  -2   4 18460.9 1010.86   2
   1  -2   5 809.530 297.478   2
   1  -2   6 71315.8 2486.61   2
   1  -2   7 44943.4 2176.66   2
   1  -2   8 19680.8 1553.28   2
   1  -1 -11 15090.4 437.962  15
   1  -1 -11 15756.2 537.046  14
   1  -1 -10 16640.1 636.412  15
   1  -1 -10 16291.6 728.942  14
   1  -1  -9 21415.8 956.225  11
   1  -1  -9 23250.4 844.202  15
   1  -1  -8 272.009 182.064  11
   1  -1  -8 1346.13 257.867  10
   1  -1  -7 4248.36 414.045  11
   1  -1  -7 4967.20 442.044  19
   1  -1  -7 4771.75 428.181  10
   1  -1  -1 16560.4 348.395   5
   1  -1   0 18485.9 511.545   2
   1  -1   1 81352.3 1229.56   2
   1  -1   2 110.603 163.478   2
   1  -1   3 31785.6 1119.36   2
   1  -1   4 5643.89 573.843   2
   1  -1   5 10060.4 838.826   2
   1  -1   6 22932.4 1415.32   2
   1  -1   7 3375.10 606.291   2
   1   0 -12 699.671 99.8522  14
   1   0 -12 1206.09 147.044   6
   1   0 -11 332.688 150.332  14
   1   0 -10 618.673 202.248  11
   1   0 -10 695.019 151.480  15
   1   0  -9 7156.17 568.134  11
   1   0  -9 5917.57 509.364  10
   1   0  -9 7066.57 460.785  15
   1   0  -8 30635.5 1126.38  11
   1   0  -8 30994.8 1092.18  10
   1   0   0 27622.3 527.406   2
   1   0   1 17334.7 541.617   2
   1   0   2 25667.4 830.643   2
   1   0   3 105971. 2023.95   2
   1   0   4 58589.1 1747.44   2
   1   0   5 20267.1 1183.43   2
   1   0   6 56559.7 2188.75   2
   1   0   7 60937.2 2475.45   2
   1   1 -12 6128.84 353.394  14
   1   1 -11 26268.9 931.657  11
   1   1 -10 22416.2 961.519  11
   1   1  -9 8547.91 609.240  11
   1   1  -9 8901.99 602.819  10
   1   1  -8 39619.2 1227.66  11
   1   1  -8 38894.1 1190.58  10
   1   1   0 19403.7 352.221   2
   1   1   1 818.106 129.654   2
   1   1   2 13171.7 593.479   2
   1   1   3 19857.1 883.489   2
   1   1   4 27734.8 1201.70   2
   1   1   5 245.910 214.727   2
   1   2 -12 1651.80 228.951  14
   1   2 -11 2400.34 319.477  11
   1   2 -10 18414.3 882.455  11
   1   2  -9 14002.8 757.338  11
   1   2  -9 14785.5 763.733  10
   1   2  -8 309.799 142.588  11
   1   2  -8 896.485 206.137  10
   1   2   1 76409.7 960.525   2
   1   2   2 87113.0 1444.20   2
   1   2   3 111764. 2031.47   2
   1   3 -13 6168.80 298.505  14
   1   3 -12 13899.9 603.002  11
   1   3 -11 6130.27 488.397  11
   1   3 -10 8652.52 609.561  11
   1   3 -10 9297.76 605.869  10
   1   3  -9 54965.4 1458.01  11
   1   3  -9 52410.3 1376.66  10
   1   4 -13 1471.01 177.687  14
   1   4 -12 10559.5 535.408  11
   1   4 -11 16237.1 764.796  11
   1   4 -10 13214.8 724.754  11
   1   4 -10 14166.7 708.944  10
   1   4  -9 39184.6 1208.08  11
   1   4  -9 37814.3 1120.15  10
   1   5 -13 12779.4 465.143  14
   1   5 -12 4682.14 357.638  11
   1   5 -11 500.148 166.406  11
   1   5 -10 6978.88 514.979  11
   1   5  -9 6401.71 486.668  11
   1   6 -13 3444.35 234.974  14
   1   6 -12 10936.3 500.945  11
   1   6 -11 13463.2 645.377  11
   1   6 -10 35157.0 1100.84  11
   1   6  -9 40429.6 1174.73  11
   1   7 -11 2632.57 268.677  11
   2 -13   2 3043.89 253.600  12
   2 -13   3 2854.40 274.884  12
   2 -13   4 6422.97 393.197  12
   2 -13   5 1769.33 209.334  12
   2 -13   7 673.575 122.842   7
   2 -12   0 10591.4 490.801  12
   2 -12   1 4186.42 383.601  12
   2 -12   2 4723.25 446.963  12
   2 -12   3 58461.6 1483.24  12
   2 -12   4 16417.7 792.780  12
   2 -12   5 8997.60 546.579   7
   2 -12   5 9797.31 589.821  12
   2 -12   6 8527.24 542.172   7
   2 -12   6 9171.82 500.031  12
   2 -12   7 5324.48 422.865   7
   2 -12   8 5065.27 392.615   7
   2 -12   8 4635.91 275.225   8
   2 -12   9 3912.42 294.705   7
   2 -12   9 3663.90 217.904   8
   2 -11  -1 149.548 146.927  12
   2 -11  -1 507.767 131.526  16
   2 -11   0 1485.07 298.287  12
   2 -11   0 1370.23 204.732  16
   2 -11   1 449.874 257.193  12
   2 -11   2-57.4652 265.913  12
   2 -11   3 567.109 225.950  12
   2 -11   4 4443.58 497.620  12
   2 -11   4 4264.49 435.248   7
   2 -11   5 516.445 233.812  12
   2 -11   5 110.212 160.824   7
   2 -11   6 1797.40 289.936  12
   2 -11   6 1699.26 316.361   7
   2 -11   7 767.937 261.475   7
   2 -11   8 3721.58 416.662   7
   2 -11   9 5879.18 444.183   7
   2 -11  10 7314.01 381.279   7
   2 -11  10 7481.70 346.480   8
   2 -10  -4 3691.48 222.082  15
   2 -10  -3 3690.16 271.681  16
   2 -10  -3 3582.49 277.581  15
   2 -10  -2 16044.3 720.968  12
   2 -10  -2 14946.6 609.320  16
   2 -10  -2 15665.8 625.756  15
   2 -10  -1 26637.7 1078.75  12
   2 -10  -1 26524.1 882.105  16
   2 -10  -1 25353.3 839.728  15
   2 -10   0 11097.4 762.871  12
   2 -10   0 9705.72 554.756  16
   2 -10   0 9939.66 541.730  15
   2 -10   1 39658.6 1468.79  12
   2 -10   1 39872.4 1116.57  16
   2 -10   1 40777.0 1077.47  15
   2 -10   2 50270.6 1673.93  12
   2 -10   2 50744.1 1263.46  16
   2 -10   3 46516.6 1442.06   7
   2 -10   3 43731.6 1546.26  12
   2 -10   4 26749.9 1152.94   7
   2 -10   4 25564.3 1163.45  12
   2 -10   5 16518.2 896.242  12
   2 -10   9 28187.2 1049.93   7
   2 -10  10 12624.2 584.562   7
   2 -10  11 5095.94 254.215   8
   2  -9  -5 3057.75 221.844  16
   2  -9  -5 3348.18 253.367  15
   2  -9  -4 1723.70 215.102  16
   2  -9  -4 1483.75 229.959  15
   2  -9  -3 771.484 180.174  16
   2  -9  -3 1029.47 223.180  15
   2  -9  -2 1194.99 274.368  12
   2  -9  -2 985.997 201.662  16
   2  -9  -2 1063.76 225.536  15
   2  -9  -1 438.080 226.214  12
   2  -9  -1 527.534 167.129  16
   2  -9  -1 461.748 174.863  15
   2  -9   0 6256.94 615.179  12
   2  -9   0 6255.04 474.067  16
   2  -9   0 6132.86 465.823  15
   2  -9   1 1656.67 342.167  12
   2  -9   1 1841.97 262.500  16
   2  -9   1 1886.69 265.411  15
   2  -9   2-47.3486 244.513  12
   2  -9   2 1005.56 441.908   5
   2  -9   3 3047.11 445.786  12
   2  -9   3 3516.54 740.846   5
   2  -9   4-56.9214 179.514  12
   2  -9   4 12.0457 197.644   5
   2  -9   5 1197.16 301.396  12
   2  -9  10 2799.18 321.796   7
   2  -9  11 7954.39 358.512   8
   2  -8  -7 10846.3 323.514  15
   2  -8  -6 11630.4 458.546  16
   2  -8  -6 11701.3 489.571  15
   2  -8  -5 31356.3 935.477  15
   2  -8  -4 6988.94 499.083  15
   2  -8  -3 1940.35 298.873  15
   2  -8  -2 21257.5 1016.54  12
   2  -8  -2 22483.7 902.077  15
   2  -8  -1 25638.0 1151.09  12
   2  -8  -1 25926.3 942.028  16
   2  -8  -1 25752.4 942.458  15
   2  -8  -1 27335.8 1797.71   4
   2  -8   0 30320.7 1251.32  12
   2  -8   0 30131.4 982.360  15
   2  -8   1 44978.0 1501.81  12
   2  -8   1 46136.9 2359.25   5
   2  -8   1 43257.1 1134.23  15
   2  -8   2 42198.8 2318.10   5
   2  -8   3 19943.6 1643.68   5
   2  -8   4 7065.28 1027.73   5
   2  -8   5 38136.3 1907.88   2
   2  -8   6 1868.06 447.046   2
   2  -8   6 2235.28 262.000  14
   2  -8   7 11309.2 599.530  14
   2  -8   8 952.169 194.774  14
   2  -8  11 1609.29 180.785   8
   2  -7  -8 2623.53 164.349  15
   2  -7  -7 137.146 114.214  15
   2  -7  -6 1448.44 245.085   6
   2  -7  -6 1307.32 245.599  15
   2  -7  -5 455.556 185.144   6
   2  -7  -5 313.410 171.841  15
   2  -7  -4 29.6303 135.669   6
   2  -7  -4 36.2286 167.705  15
   2  -7  -3 90.7622 97.8149   6
   2  -7  -3 59.3566 132.789  15
   2  -7  -3-95.4481 284.042   4
   2  -7  -2 6307.53 549.058  12
   2  -7  -2 6160.33 471.567   6
   2  -7  -2 6137.98 465.763  15
   2  -7  -2 7621.11 932.437   4
   2  -7  -1 14474.5 1207.31   4
   2  -7   0 671.429 257.158   5
   2  -7   0 989.631 308.630   4
   2  -7   1 17831.7 1345.59   5
   2  -7   1 19209.4 1154.06   4
   2  -7   2 34900.7 1938.57   5
   2  -7   3 58742.1 2584.12   5
   2  -7   3 65872.3 2138.48   2
   2  -7   4 52642.2 2067.01   2
   2  -7   5 30856.8 1706.85   2
   2  -7   6 5599.52 794.865   2
   2  -7   6 7116.42 470.619  14
   2  -7   7 921.768 363.760   2
   2  -7   7 1067.93 219.215  14
   2  -7   8 44365.5 1213.90  14
   2  -7  11 11766.6 432.088   8
   2  -6  -8 16206.7 579.102   6
   2  -6  -8 16701.1 571.670  15
   2  -6  -7 37841.2 1093.12   6
   2  -6  -7 39901.7 1078.89  15
   2  -6  -6 23327.1 951.854   6
   2  -6  -6 23676.6 925.423  15
   2  -6  -5 7120.44 554.393   6
   2  -6  -5 7332.97 537.180  15
   2  -6  -4 22765.3 942.118   6
   2  -6  -4 22654.2 906.630  15
   2  -6  -4 23241.4 1763.06   4
   2  -6  -3 38740.7 1123.65  15
   2  -6  -3 35585.8 2047.49   4
   2  -6  -2 3717.34 646.538   4
   2  -6  -1 27160.1 1456.49   5
   2  -6  -1 25098.2 1416.28   4
   2  -6   0 56977.1 2113.98   5
   2  -6   0 58641.3 1953.90   4
   2  -6   1 33072.5 1651.60   5
   2  -6   1 36301.1 1375.46   4
   2  -6   2 11710.3 822.166   2
   2  -6   3 68392.6 2111.19   2
   2  -6   4 14719.1 1062.58   2
   2  -6   5 3819.52 600.938   2
   2  -6   6 25111.1 1643.80   2
   2  -6   7 15130.2 1357.26   2
   2  -6   7 14967.1 699.665  14
   2  -6   8 22154.2 877.104  14
   2  -5  -9 11258.5 462.976   6
   2  -5  -9 11740.0 443.477  15
   2  -5  -8 11538.4 599.054   6
   2  -5  -8 12140.2 583.373  15
   2  -5  -7 819.510 220.193   6
   2  -5  -7 432.426 187.240  15
   2  -5  -6 937.159 231.054   6
   2  -5  -6 319.796 165.928  15
   2  -5  -5 11874.9 689.666   6
   2  -5  -5 11366.7 644.105  15
   2  -5  -5 13254.3 1361.63   4
   2  -5  -4 1997.96 276.219  15
   2  -5  -4 2464.85 586.449   4
   2  -5  -3 13268.4 1132.52   4
   2  -5  -2 9151.16 858.671   4
   2  -5  -1 5555.54 580.743   5
   2  -5  -1 6777.58 676.415   4
   2  -5   0 47294.4 1687.33   5
   2  -5   0 50612.3 1570.09   4
   2  -5   1 25692.3 985.362   4
   2  -5   1 22659.0 1040.38   2
   2  -5   2 37196.9 1387.02   2
   2  -5   3 207599. 3542.46   2
   2  -5   4 104436. 2745.97   2
   2  -5   5 39471.6 1856.11   2
   2  -5   6 45428.6 2174.62   2
   2  -5   7 45191.3 2329.92   2
   2  -5   7 47795.5 1252.37  14
   2  -4 -10 5056.48 285.699   6
   2  -4 -10 4910.05 244.496  15
   2  -4  -9 199.363 130.384   6
   2  -4  -9 9.78783 112.171  15
   2  -4  -8 8736.71 591.627   6
   2  -4  -8 8386.54 529.607  15
   2  -4  -8 8423.30 511.849  14
   2  -4  -7 32962.8 1082.74  15
   2  -4  -7 32747.8 1102.13  14
   2  -4  -6 36525.4 1138.49  15
   2  -4  -6 34534.7 1148.71  14
   2  -4  -5 20061.6 1564.55   4
   2  -4  -4 31648.2 1782.49   4
   2  -4  -3 2230.14 456.600   4
   2  -4  -2 8943.17 763.506   4
   2  -4  -1 32497.6 1170.09   5
   2  -4  -1 33267.5 1251.37   4
   2  -4   0 9228.85 649.682   5
   2  -4   0 9696.63 575.120   4
   2  -4   1 3301.82 282.919   4
   2  -4   1 3507.08 399.853   2
   2  -4   2 101545. 2173.98   2
   2  -4   3 33356.3 1377.64   2
   2  -4   4 308.821 225.610   2
   2  -4   5 15064.1 1136.74   2
   2  -4   6-702.010 321.071   2
   2  -4   7 146.375 362.905   2
   2  -4   7 491.392 181.457  14
   2  -3 -10 7163.76 435.340   6
   2  -3 -10 6497.54 351.036  15
   2  -3  -9-158.901 129.199  14
   2  -3  -9 59.9911 109.292  15
   2  -3  -8 22700.4 883.153  15
   2  -3  -8 23860.4 981.334  14
   2  -3  -7 130305. 2118.70  15
   2  -3  -7 131352. 2307.69  14
   2  -3  -6 44965.1 1181.29  15
   2  -3  -6 42268.0 1266.08  14
   2  -3  -1 20046.7 746.770   5
   2  -3   0 155951. 2290.04   2
   2  -3   0 165924. 1866.59   4
   2  -3   1 75531.5 1644.52   2
   2  -3   2 38058.9 1289.82   2
   2  -3   3 190191. 3184.83   2
   2  -3   4 105205. 2636.32   2
   2  -3   5 56564.9 2136.22   2
   2  -3   6 40940.6 2012.04   2
   2  -3   7 40606.2 2165.26   2
   2  -2 -11 7425.92 387.979   6
   2  -2 -10 15555.5 593.175  15
   2  -2 -10 14329.0 656.755  14
   2  -2  -9 18927.9 756.589  15
   2  -2  -9 17468.5 839.943  14
   2  -2  -8 67286.4 1473.94  15
   2  -2  -8 68024.1 1711.48  14
   2  -2  -7 721.770 219.765  11
   2  -2  -7 513.303 148.600  15
   2  -2   0 22968.1 816.730   2
   2  -2   0 24264.1 488.364   4
   2  -2   1 33784.9 1047.35   2
   2  -2   2 854.844 238.575   2
   2  -2   3 33546.4 1310.46   2
   2  -2   4 4983.77 576.065   2
   2  -2   5 5409.13 670.118   2
   2  -2   6 7304.67 867.846   2
   2  -2   7 15337.6 1311.51   2
   2  -1 -12 1800.05 155.415   6
   2  -1 -11 4428.82 349.710  14
   2  -1 -10 15295.9 607.354  15
   2  -1 -10 15818.6 782.126  14
   2  -1  -9 37.8639 154.562  11
   2  -1  -9 185.084 126.926  15
   2  -1  -8 4471.34 454.367  11
   2  -1  -8 3987.83 354.926  15
   2  -1   0 4781.64 362.114   2
   2  -1   1 192658. 2322.79   2
   2  -1   2 154667. 2361.78   2
   2  -1   3 81483.0 1971.94   2
   2  -1   4 94174.8 2413.70   2
   2  -1   5 95404.2 2712.44   2
   2  -1   6 42571.8 2000.59   2
   2  -1   7 18495.7 1415.25   2
   2   0 -12 17191.0 561.206  14
   2   0 -11 967.823 213.521  14
   2   0 -10 3057.00 383.515  11
   2   0  -9 6236.45 526.839  11
   2   0  -8 22265.6 933.263  11
   2   0   0 925.786 167.149   2
   2   0   1 11699.7 553.149   2
   2   0   2 28681.8 988.272   2
   2   0   3 21178.9 994.109   2
   2   0   4 19088.9 1079.16   2
   2   0   5 30233.3 1503.96   2
   2   1 -12 14635.1 608.682  14
   2   1 -11 5966.49 472.185  11
   2   1 -10 488.437 200.001  11
   2   1  -9 1393.08 273.109  11
   2   1  -8 41579.7 1227.28  11
   2   1  -8 42564.2 1222.64  10
   2   1   0 26145.4 666.967   2
   2   1   1 77446.4 1322.92   2
   2   1   2 838.177 208.422   2
   2   1   3 1193.22 255.800   2
   2   1   4 61164.6 1849.14   2
   2   2 -13 1381.40 157.693  14
   2   2 -12 781.545 209.614  14
   2   2 -11 10603.0 630.824  11
   2   2 -10 2214.45 333.342  11
   2   2  -9 23257.4 952.089  11
   2   2   1 11079.7 434.098   2
   2   3 -13 13215.2 496.252  14
   2   3 -12 20180.6 739.437  11
   2   3 -11 5376.62 450.295  11
   2   3 -10 47224.7 1349.60  11
   2   3  -9 24603.3 950.229  11
   2   4 -13-44.4439 103.571  14
   2   4 -12 338.559 140.061  11
   2   4 -11 4980.96 431.853  11
   2   4 -10 472.425 151.356  11
   2   4  -9 38.4207 97.3476  11
   2   5 -13 5842.89 343.426  14
   2   5 -12 17881.8 659.075  11
   2   5 -11 28657.9 950.597  11
   2   5 -10 18132.7 788.422  11
   2   6 -13 5223.07 291.647  14
   3 -13   2 2190.25 216.220  12
   3 -13   3 1510.61 204.615  12
   3 -13   4 9524.30 434.768  12
   3 -13   5 3256.73 223.353  12
   3 -12   0 1517.92 224.115  12
   3 -12   1 307.500 187.286  12
   3 -12   2 10495.3 629.511  12
   3 -12   3 279.368 205.262  12
   3 -12   4 1185.85 249.465  12
   3 -12   5 5429.71 403.070   7
   3 -12   5 5891.98 429.853  12
   3 -12   6 4262.90 362.218   7
   3 -12   7 5042.34 378.361   7
   3 -12   8 8370.34 426.948   7
   3 -11  -2 6113.45 311.971  15
   3 -11  -1 5600.86 439.284  12
   3 -11  -1 5968.88 349.319  15
   3 -11   0 10565.8 663.540  12
   3 -11   0 10196.3 481.412  15
   3 -11   1 15088.2 841.248  12
   3 -11   1 15766.6 612.999  15
   3 -11   2 531.071 258.658  12
   3 -11   3 1943.71 371.943  12
   3 -11   4 2404.25 369.591  12
   3 -11   4 2264.55 323.945   7
   3 -11   5 4682.90 439.303  12
   3 -11   5 4610.16 461.290   7
   3 -11   6 1008.56 248.326   7
   3 -11   7-177.802 195.313   7
   3 -11   8 656.026 214.255   7
   3 -11   9 59.5322 117.232   7
   3 -10  -4 2151.66 201.628  15
   3 -10  -3 10836.5 499.087  15
   3 -10  -2 23126.0 898.187  12
   3 -10  -2 22665.1 788.582  15
   3 -10  -1 11881.1 746.294  12
   3 -10  -1 10425.4 567.070  15
   3 -10   0 4131.92 495.508  12
   3 -10   0 4192.27 377.103  15
   3 -10   1 72995.4 1991.29  12
   3 -10   1 70141.0 1474.76  15
   3 -10   2 50290.5 1666.34  12
   3 -10   2 53978.9 1278.87  15
   3 -10   3 492.301 273.601  12
   3 -10   3 430.370 201.501   7
   3 -10   3 242.582 103.857  15
   3 -10   4 15546.3 895.706  12
   3 -10   5 26367.6 1092.70  12
   3 -10  10 10830.6 447.078   7
   3 -10  10 10906.8 412.798   8
   3  -9  -6 6328.74 270.384  15
   3  -9  -5 1887.86 221.238  15
   3  -9  -4 24058.1 811.809  15
   3  -9  -3 19079.1 819.104  12
   3  -9  -3 18251.5 773.193  15
   3  -9  -2 4715.77 482.358  12
   3  -9  -2 4616.43 419.810  15
   3  -9  -1 3134.44 457.117  12
   3  -9  -1 2861.29 345.138  15
   3  -9   0 1752.93 374.460  12
   3  -9   0 1250.05 241.029  15
   3  -9   1 39818.1 1492.13  12
   3  -9   1 42290.2 1197.27  15
   3  -9   2 14768.2 694.025  15
   3  -9   3 11732.7 611.838  15
   3  -9   4 2039.70 364.325  12
   3  -9   5 10224.2 705.846  12
   3  -9   5 11093.4 562.455  14
   3  -9   6 13.0300 94.6679  14
   3  -9   7 60.7697 107.829  14
   3  -9  10 136.413 107.784   7
   3  -8  -7 1461.14 149.779  15
   3  -8  -6 5909.07 377.247  15
   3  -8  -5 4174.42 376.995  15
   3  -8  -4 847.302 231.151  15
   3  -8  -3 26911.6 1080.07  12
   3  -8  -3 25620.5 980.059  15
   3  -8  -2 13369.8 819.268  12
   3  -8  -2 13848.2 725.304  15
   3  -8  -1 45045.7 1269.47  15
   3  -8   0 72577.3 1569.81  15
   3  -8   1 36998.5 1093.02  15
   3  -8   2 73619.9 3025.54   5
   3  -8   2 72631.7 1505.35  15
   3  -8   3 24681.2 1833.06   5
   3  -8   3 25826.4 893.431  15
   3  -8   4 2876.09 547.212   2
   3  -8   4 4665.81 374.807  14
   3  -8   5 2086.70 257.584  14
   3  -8   5 1039.10 338.579   2
   3  -8   6 66599.7 1459.27  14
   3  -8   7 62475.0 1417.14  14
   3  -8   8 23729.3 852.758  14
   3  -7  -8 1564.45 152.450  15
   3  -7  -7 5164.53 356.389  15
   3  -7  -6 4397.94 360.190   6
   3  -7  -6 4608.10 403.744  15
   3  -7  -5 2778.40 315.168   6
   3  -7  -5 2345.40 327.316  15
   3  -7  -4 7778.12 551.518  15
   3  -7  -3 5359.20 505.890  12
   3  -7  -3 5699.57 475.817  15
   3  -7  -3 5122.41 806.416   4
   3  -7  -2 1226.97 222.971  15
   3  -7  -1 9805.89 569.940  15
   3  -7   1 2633.35 520.797   5
   3  -7   2-104.220 129.715   2
   3  -7   2 340.112 226.695   5
   3  -7   3 2303.17 463.546   2
   3  -7   4 2674.23 525.867   2
   3  -7   5 3578.51 331.525  14
   3  -7   5 3370.57 626.935   2
   3  -7   6 55038.3 2605.27   2
   3  -7   6 54645.0 1337.43  14
   3  -7   7 890.749 205.010  14
   3  -7   8 8352.60 537.138  14
   3  -6  -9 8642.98 293.684  15
   3  -6  -8 10710.8 461.816   6
   3  -6  -8 10401.2 479.917  15
   3  -6  -7 17082.8 711.255   6
   3  -6  -7 16016.3 703.484  15
   3  -6  -6 5932.92 465.906   6
   3  -6  -6 5429.47 463.761  15
   3  -6  -5 5826.16 475.195   6
   3  -6  -5 4600.40 426.201  15
   3  -6  -4 23485.4 920.402  15
   3  -6  -4 24474.4 1754.51   4
   3  -6  -3 31621.8 1024.28  15
   3  -6  -3 31653.8 1835.34   4
   3  -6  -2 45331.3 1994.17   4
   3  -6  -1 72829.2 2234.59   4
   3  -6   0 91536.2 2597.30   5
   3  -6   1 51563.3 2065.89   5
   3  -6   2 11424.2 934.364   2
   3  -6   3 50702.7 2044.75   2
   3  -6   4 42429.7 1998.24   2
   3  -6   5 14253.5 1244.51   2
   3  -6   5 17385.1 717.073  14
   3  -6   6 6416.58 464.546  14
   3  -6   6 5471.19 861.069   2
   3  -6   7 6179.69 474.389  14
   3  -6   8 27533.1 971.654  14
   3  -5  -9 11881.8 473.561   6
   3  -5  -9 11690.8 468.950  15
   3  -5  -8 4575.38 380.711   6
   3  -5  -8 4215.87 371.685  15
   3  -5  -8 3722.69 312.274  14
   3  -5  -7 4318.04 401.017   6
   3  -5  -7 3959.79 383.676  15
   3  -5  -7 3802.40 368.671  14
   3  -5  -6 508.171 183.875   6
   3  -5  -6 517.440 194.634  15
   3  -5  -6 283.182 152.753  14
   3  -5  -5 395.336 174.571  14
   3  -5  -5 49.5252 124.353   6
   3  -5  -5 188.703 130.534  15
   3  -5  -4 300.038 155.619  15
   3  -5  -4 333.532 272.332   4
   3  -5  -3 132.059 273.161   4
   3  -5  -2 57.8847 135.147   4
   3  -5  -1 4310.41 486.793   4
   3  -5   0 2438.65 381.576   5
   3  -5   1 3361.08 483.114   2
   3  -5   2 69870.4 2165.02   2
   3  -5   3 16248.0 1123.78   2
   3  -5   4 27210.8 1557.73   2
   3  -5   5 1670.42 459.393   2
   3  -5   6 33274.1 1993.51   2
   3  -5   6 33203.9 1036.55  14
   3  -5   7 93969.2 3489.27   2
   3  -5   7 84819.3 1725.30  14
   3  -4 -10 5605.90 305.146   6
   3  -4 -10 4961.52 262.236  15
   3  -4  -9 32655.7 962.514   6
   3  -4  -9 33322.1 903.129  15
   3  -4  -9 32143.1 906.951  14
   3  -4  -8 26529.1 927.179  15
   3  -4  -8 25208.5 953.770  14
   3  -4  -7 15437.2 742.852  15
   3  -4  -7 15042.4 778.210  14
   3  -4  -6 13153.0 682.344  15
   3  -4  -6 12826.4 716.798  14
   3  -4  -6 12739.4 1326.89   4
   3  -4  -5 31107.7 1907.54   4
   3  -4  -2 58774.0 1841.30   4
   3  -4  -1 62873.8 1551.04   5
   3  -4  -1 65610.8 1635.62   4
   3  -4   0 71906.6 1276.86   4
   3  -4   0 70040.3 1915.82   2
   3  -4   1 319325. 4196.79   2
   3  -4   2 140743. 2961.50   2
   3  -4   3 8017.16 769.394   2
   3  -4   4 26559.2 1489.96   2
   3  -4   5 34319.5 1838.55   2
   3  -4   6 14657.0 1286.92   2
   3  -4   6 15717.6 708.878  14
   3  -4   7 4868.74 834.185   2
   3  -4   7 3937.27 383.280  14
   3  -3 -11 542.877 90.4050   6
   3  -3 -10 1288.19 204.827  14
   3  -3 -10 1414.75 203.864   6
   3  -3 -10 1679.77 198.281  15
   3  -3  -9 595.429 198.988  14
   3  -3  -9 383.409 154.376  15
   3  -3  -8 262.734 167.015  14
   3  -3  -8 578.048 176.540  15
   3  -3  -7 1644.36 288.469  14
   3  -3  -7 1270.11 235.693  15
   3  -3  -6 374.220 169.426  14
   3  -3   0 90249.1 2045.75   2
   3  -3   1 35653.7 1347.23   2
   3  -3   2 36757.4 1457.05   2
   3  -3   3 8591.83 776.775   2
   3  -3   4 32509.0 1611.64   2
   3  -3   5 47585.0 2133.99   2
   3  -3   6 47941.8 2292.43   2
   3  -3   6 48710.9 1238.07  14
   3  -2 -11 15557.6 571.149   6
   3  -2 -11 15663.4 569.158  14
   3  -2 -10 13841.6 554.052  15
   3  -2 -10 14633.4 713.083  14
   3  -2  -9 34176.4 999.533  15
   3  -2  -9 33707.3 1203.59  14
   3  -2  -8 26375.2 905.812  15
   3  -2  -8 27404.4 1108.05  14
   3  -2  -7 30997.7 956.085  15
   3  -2  -7 32163.4 1153.01  14
   3  -2   0 16693.5 839.553   2
   3  -2   1 219431. 3145.84   2
   3  -2   2 110151. 2393.59   2
   3  -2   3 40068.8 1589.89   2
   3  -2   4 17991.1 1185.63   2
   3  -2   5-34.0199 168.786   2
   3  -2   6-68.7684 197.794   2
   3  -2   6 507.263 155.850  14
   3  -1 -12 1316.55 149.539   6
   3  -1 -12 1705.27 170.574  14
   3  -1 -11 1568.32 256.282  14
   3  -1 -10-6.89700 164.931  14
   3  -1  -9 9327.45 666.218  14
   3  -1  -8 18956.1 877.171  11
   3  -1  -8 20112.9 949.380  14
   3  -1   0 6869.15 522.120   2
   3  -1   1 107734. 2106.35   2
   3  -1   2 217822. 3242.47   2
   3  -1   3 19765.2 1101.64   2
   3  -1   4 11411.0 909.583   2
   3  -1   5 53092.7 2160.42   2
   3   0 -12 14982.8 583.130  14
   3   0 -11 9824.51 607.221  14
   3   0 -10 69036.9 1743.97  14
   3   0  -9 87059.0 1885.18  11
   3   0  -8 12848.7 694.361  11
   3   0   0 15977.2 731.523   2
   3   0   1 2198.56 318.570   2
   3   0   2 26212.0 1098.25   2
   3   0   3 38495.1 1483.46   2
   3   0   4 5556.85 631.539   2
   3   1 -13 117.071 74.9006  14
   3   1 -12 2704.24 298.113  14
   3   1 -11 1219.68 275.620  14
   3   1 -10 12088.6 701.650  11
   3   1  -9 29188.4 1068.82  11
   3   1   0 111354. 1775.50   2
   3   1   1 120768. 2003.99   2
   3   1   2 21192.4 936.598   2
   3   2 -13 6822.81 354.926  14
   3   2 -12 9282.77 553.460  14
   3   2 -11 815.481 203.897  11
   3   2 -10 3058.80 357.480  11
   3   2  -9 41397.5 1215.27  11
   3   3 -13 9941.39 450.120  14
   3   3 -12-90.9284 163.498  14
   3   3 -11 2963.32 327.504  11
   3   3 -10 13600.1 702.314  11
   3   4 -13 2870.81 260.868  14
   3   4 -12 826.586 206.726  14
   3   5 -13 1950.78 201.346  14
   3   5 -12 25563.8 874.376  14
   4 -13   2 11379.2 414.490  12
   4 -13   3 6372.35 325.820  12
   4 -12   0 660.237 166.392  12
   4 -12   1 146.216 176.839  12
   4 -12   2 353.572 206.217  12
   4 -12   3 211.453 162.364  12
   4 -12   4-62.0818 153.478  12
   4 -12   5 4262.71 316.984  12
   4 -12   6 734.872 151.094   7
   4 -12   7 744.681 145.806   7
   4 -11  -3 13849.5 388.415  15
   4 -11  -2 22368.2 614.465  15
   4 -11  -1 9960.31 571.575  12
   4 -11  -1 9616.63 451.716  15
   4 -11   0 773.896 246.623  12
   4 -11   0 947.245 181.990  15
   4 -11   1 2917.12 416.937  12
   4 -11   1 2621.30 268.269  15
   4 -11   2 15044.3 839.312  12
   4 -11   2 15765.4 624.759  15
   4 -11   3 25837.4 1070.07  12
   4 -11   4 28657.0 986.946   7
   4 -11   4 29317.3 1078.01  12
   4 -11   5 13094.5 689.685   7
   4 -11   5 14223.7 683.480  12
   4 -11   6 5864.98 462.704   7
   4 -11   7 20483.5 802.464   7
   4 -11   8 6308.69 396.813   7
   4 -10  -4 57.5349 91.1478  15
   4 -10  -3 71.9737 115.859  15
   4 -10  -2 2409.75 319.043  12
   4 -10  -2 2502.79 287.969  15
   4 -10  -1 8531.03 635.447  12
   4 -10  -1 9101.35 539.360  15
   4 -10   0-16.0310 246.666  12
   4 -10   0-58.0194 144.570  15
   4 -10   1 14066.4 884.833  12
   4 -10   1 15414.7 712.570  15
   4 -10   2 3593.40 478.008  12
   4 -10   2 3867.09 360.747  15
   4 -10   3 8341.17 666.924  12
   4 -10   4 1469.68 311.369  12
   4 -10   5 5162.36 471.291  12
   4 -10   5 5043.66 356.243  14
   4 -10   6 1372.77 191.534  14
   4 -10   7 3755.46 286.870  14
   4 -10   9 3674.80 299.193   7
   4  -9  -6 8409.08 329.142  15
   4  -9  -5 17111.9 606.889  15
   4  -9  -4 22889.8 806.465  15
   4  -9  -3 15616.7 761.678  12
   4  -9  -3 15044.0 708.770  15
   4  -9  -2 15564.4 856.835  12
   4  -9  -2 13838.4 713.231  15
   4  -9  -1 21909.1 1081.76  12
   4  -9  -1 20445.6 870.139  15
   4  -9   0 60233.6 1472.42  15
   4  -9   1 2549.88 321.781  15
   4  -9   2 2863.04 331.334  15
   4  -9   2 3094.17 305.384  14
   4  -9   3 19963.2 831.092  15
   4  -9   3 20527.6 774.954  14
   4  -9   4 26472.7 890.407  14
   4  -9   5 11184.3 582.497  14
   4  -9   6 5060.40 389.772  14
   4  -9   7 4062.29 342.462  14
   4  -8  -7 36.8102 74.7666  15
   4  -8  -6 402.504 146.298  15
   4  -8  -5 555.166 197.995  15
   4  -8  -4 9627.90 602.365  15
   4  -8  -3 3862.69 439.902  12
   4  -8  -3 3873.51 413.045  15
   4  -8  -2 1046.59 227.110  15
   4  -8  -1 22886.6 928.705  15
   4  -8  -1 24068.4 851.916  14
   4  -8   0 67555.4 1558.37  15
   4  -8   0 66569.5 1415.00  14
   4  -8   1 6333.14 489.481  15
   4  -8   1 5952.68 437.337  14
   4  -8   2 689.311 200.951  15
   4  -8   2 377.892 114.286  14
   4  -8   3 49866.8 2635.66   5
   4  -8   3 52384.7 1348.81  15
   4  -8   3 53287.0 1283.51  14
   4  -8   4 53949.9 2530.31   2
   4  -8   4 57450.6 1352.08  14
   4  -8   5 18728.4 782.200  14
   4  -8   6 38531.9 1123.08  14
   4  -8   7 42783.9 1154.52  14
   4  -7  -8 13427.5 422.385  15
   4  -7  -7 10268.6 495.825  15
   4  -7  -6 9860.82 566.005  15
   4  -7  -5 32686.6 1089.36  15
   4  -7  -5 32013.3 956.865  14
   4  -7  -4 46208.2 1320.73  15
   4  -7  -4 46864.1 1220.02  14
   4  -7  -3 23709.6 947.546  15
   4  -7  -3 24178.5 895.428  14
   4  -7  -2 12716.3 689.048  15
   4  -7  -2 11132.0 607.460  14
   4  -7  -1 73448.2 1592.29  15
   4  -7  -1 72105.6 1490.95  14
   4  -7   0 77594.6 1601.99  15
   4  -7   0 75246.7 1505.81  14
   4  -7   1 31341.5 1004.97  15
   4  -7   2 20792.1 820.301  15
   4  -7   2 21031.3 800.044  14
   4  -7   3 4304.43 695.737   2
   4  -7   3 5317.08 425.761  15
   4  -7   3 4469.58 374.654  14
   4  -7   4 2603.27 560.238   2
   4  -7   4 2892.52 317.437  14
   4  -7   5 11694.9 636.252  14
   4  -7   5 12329.7 1246.80   2
   4  -7   6 42936.0 1217.76  14
   4  -7   7 14809.9 708.534  14
   4  -6  -9-74.2164 50.7424  15
   4  -6  -8 869.441 160.980  15
   4  -6  -7 7202.51 481.436  15
   4  -6  -7 7222.80 438.534  14
   4  -6  -6 2414.80 319.225  15
   4  -6  -6 2434.98 298.050  14
   4  -6  -5 1724.95 288.712  15
   4  -6  -5 1429.27 258.372  14
   4  -6  -4 29761.1 1052.49  15
   4  -6  -4 29047.0 1020.06  14
   4  -6  -3 24049.6 915.274  15
   4  -6  -3 23822.4 896.629  14
   4  -6   2 31832.1 1721.05   2
   4  -6   3 11851.2 1109.80   2
   4  -6   4 37947.8 2065.97   2
   4  -6   4 39908.3 1109.15  14
   4  -6   5 112411. 3727.92   2
   4  -6   5 112810. 1931.44  14
   4  -6   6 3307.74 358.115  14
   4  -6   7 18474.4 805.996  14
   4  -5  -9 6371.64 350.454  15
   4  -5  -8 13604.0 619.203  15
   4  -5  -8 13163.3 616.338  14
   4  -5  -7 5759.95 455.542  15
   4  -5  -7 5547.83 466.385  14
   4  -5  -6 7402.68 525.344  15
   4  -5  -6 7842.55 567.664  14
   4  -5  -5 20742.2 863.555  15
   4  -5  -5 21756.6 1607.40   4
   4  -5  -5 22399.4 930.877  14
   4  -5  -4 213.539 148.686  15
   4  -5  -4 67.1007 143.978   4
   4  -5  -4 133.970 115.757  14
   4  -5  -3 32960.3 1652.41   4
   4  -5   1 398.801 228.123   2
   4  -5   2 4869.49 660.565   2
   4  -5   3 120.564 219.600   2
   4  -5   4 1364.39 426.894   2
   4  -5   5 1942.91 498.268   2
   4  -5   5 804.499 194.730  14
   4  -5   6 2974.26 334.868  14
   4  -5   7 9012.40 570.767  14
   4  -4 -10 4986.19 251.464  15
   4  -4 -10 5651.49 307.321  14
   4  -4  -9 12236.1 548.925   6
   4  -4  -9 12578.1 547.509  15
   4  -4  -9 11954.9 596.544  14
   4  -4  -8 5485.03 418.523  15
   4  -4  -8 5461.49 472.264  14
   4  -4  -7 1266.09 268.357  14
   4  -4  -7 1523.93 265.221  15
   4  -4  -6 11493.9 633.581  15
   4  -4  -6 11017.2 682.965  14
   4  -4  -6 13260.5 1333.51   4
   4  -4  -5 19786.7 791.062  15
   4  -4  -5 19151.0 851.539  14
   4  -4   1 39811.6 1700.01   2
   4  -4   2 48954.2 1971.95   2
   4  -4   3 43619.6 1981.08   2
   4  -4   4 78948.5 2836.83   2
   4  -4   5 6526.31 458.974  14
   4  -4   5 5988.77 828.018   2
   4  -4   6 608.866 339.765   2
   4  -4   6 122.918 123.465  14
   4  -4   7 22683.2 876.994  14
   4  -3 -11 6017.35 286.412  14
   4  -3 -10 14455.3 568.654   6
   4  -3 -10 13228.3 608.310  14
   4  -3  -9 11695.7 555.018  15
   4  -3  -9 11703.0 676.950  14
   4  -3  -8 1927.32 329.275  14
   4  -3  -8 2029.72 271.600  15
   4  -3  -7 9197.51 547.032  15
   4  -3  -7 9877.43 671.293  14
   4  -3  -6 12127.5 604.814  15
   4  -3  -6 13173.4 725.585  14
   4  -3   0 334.665 228.151   2
   4  -3   1 14725.6 994.828   2
   4  -3   2 10797.1 908.737   2
   4  -3   3 632.494 354.611   2
   4  -3   4 2963.28 564.786   2
   4  -3   5 72785.7 2826.92   2
   4  -3   5 74526.0 1514.17  14
   4  -3   6 3227.12 342.381  14
   4  -2 -11 1600.13 178.238   6
   4  -2 -11 1767.56 231.146  14
   4  -2 -10 11382.1 652.668  14
   4  -2  -9 12586.5 756.322  14
   4  -2  -8 24145.1 1050.88  14
   4  -2  -7 34562.1 1210.01  14
   4  -2   0 437862. 4976.12   2
   4  -2   1 29115.8 1340.00   2
   4  -2   2 30229.3 1449.49   2
   4  -2   3 32739.4 1620.26   2
   4  -2   4 64897.1 2445.30   2
   4  -2   5 41582.9 2082.41   2
   4  -2   5 41920.8 1127.47  14
   4  -1 -12 370.149 80.7924   6
   4  -1 -12 292.079 104.519  14
   4  -1 -11 10234.4 574.717  14
   4  -1 -10 1456.20 297.519  14
   4  -1  -9-269.974 187.542  14
   4  -1  -8 165.797 162.345  14
   4  -1  -7 7566.33 558.743  14
   4  -1   0 691.576 234.091   2
   4  -1   1 11939.3 826.272   2
   4  -1   2 1902.43 393.318   2
   4  -1   3 22628.6 1305.97   2
   4  -1   4 20893.5 1352.49   2
   4  -1   5 33710.9 976.437  14
   4   0 -12 10315.5 501.589  14
   4   0 -11 20884.3 880.290  14
   4   0 -10 23681.0 1037.09  14
   4   0  -9 16292.7 871.382  14
   4   0  -8 29726.1 1134.60  14
   4   0   0 87675.6 2042.00   2
   4   0   1 50022.3 1610.21   2
   4   0   2 83400.6 2232.94   2
   4   0   3 24406.2 1296.67   2
   4   1 -13 1366.72 156.453  14
   4   1 -12 2893.18 312.253  14
   4   1 -11 5918.77 506.776  14
   4   1 -10 2561.42 372.176  14
   4   1  -9 74.7073 132.805  14
   4   1   1 30265.9 1175.35   2
   4   2 -13 10491.0 436.435  14
   4   2 -12 13965.1 663.505  14
   4   2 -11 36046.4 1193.45  14
   4   2 -10 31390.5 1164.43  14
   4   3 -13 119.941 100.048  14
   4   3 -12 19816.5 782.571  14
   4   3 -11 11392.0 671.654  14
   4   3 -10 9168.30 617.493  14
   4   4 -13 5323.98 315.061  14
   4   4 -12 940.548 203.074  14
   4   4 -11 30295.4 1047.50  14
   4   4 -10 9531.61 610.843  14
   4   5 -12 9060.56 476.817  14
   5 -12   0 6149.37 354.772  12
   5 -12   1 3272.18 297.095  12
   5 -12   2 8499.70 474.479  12
   5 -12   3 9373.57 491.835  12
   5 -12   4 1584.95 203.928  12
   5 -11  -3 687.682 98.6171  15
   5 -11  -2 121.364 90.0646  15
   5 -11  -1 16645.6 691.911  12
   5 -11  -1 15375.8 558.150  15
   5 -11   0 22824.0 904.734  12
   5 -11   0 22086.6 706.531  15
   5 -11   1 17873.6 843.229  12
   5 -11   1 19046.1 670.039  15
   5 -11   2 8526.80 608.223  12
   5 -11   3 25888.0 982.023  12
   5 -11   4 15830.1 711.315  12
   5 -11   5 8740.39 497.626   7
   5 -11   6 15337.7 632.253   7
   5 -11   7 10817.0 473.180   7
   5 -10  -4 11247.5 436.897  15
   5 -10  -3 13243.3 550.832  15
   5 -10  -2 8401.39 551.820  12
   5 -10  -2 8413.27 486.439  15
   5 -10  -1 22.9382 192.512  12
   5 -10  -1-57.2776 162.755  15
   5 -10   0 1316.61 311.598  12
   5 -10   0 1130.52 223.279  15
   5 -10   1 11581.4 783.872  12
   5 -10   1 12252.4 633.483  15
   5 -10   2 6235.75 457.337  15
   5 -10   2 5841.56 381.404  14
   5 -10   3 3915.03 464.341  12
   5 -10   3 4773.72 349.619  14
   5 -10   4 5829.45 499.911  12
   5 -10   4 7204.78 420.663  14
   5 -10   5 6659.76 400.606  14
   5 -10   6 174.220 91.7218  14
   5  -9  -6 1910.53 161.814  15
   5  -9  -5 6767.91 382.206  15
   5  -9  -4 14485.3 630.413  15
   5  -9  -3 11307.0 649.969  12
   5  -9  -3 11842.7 624.666  15
   5  -9  -2 3846.54 453.051  12
   5  -9  -2 3877.42 392.308  15
   5  -9  -1 74.6114 149.529  15
   5  -9  -1 99.9258 92.9553  14
   5  -9   0 2446.17 343.309  15
   5  -9   0 2977.39 306.381  14
   5  -9   1 40399.1 1214.40  15
   5  -9   1 39684.3 1092.89  14
   5  -9   2 34457.4 1117.67  15
   5  -9   2 35056.5 1036.18  14
   5  -9   3 32278.4 992.216  14
   5  -9   4 9818.34 553.822  14
   5  -9   5 9703.10 539.079  14
   5  -9   6 14508.2 625.962  14
   5  -9   7 16019.5 601.042  14
   5  -8  -7 1310.41 144.941  15
   5  -8  -6 4770.74 340.297  15
   5  -8  -5 5685.30 437.466  15
   5  -8  -4 648.851 204.268  15
   5  -8  -4 489.950 143.376  14
   5  -8  -3 4739.11 448.370  15
   5  -8  -3 3742.82 349.883  14
   5  -8  -2 4178.50 423.838  15
   5  -8  -2 4163.86 376.393  14
   5  -8  -1 28969.3 1060.73  15
   5  -8  -1 29188.9 982.131  14
   5  -8   0 1336.54 268.466  15
   5  -8   0 1390.14 247.852  14
   5  -8   1-52.9972 131.933  15
   5  -8   1 11.6215 127.782  14
   5  -8   2 1260.32 257.454  15
   5  -8   2 1062.52 210.884  14
   5  -8   3 0.83299 126.968  14
   5  -8   4 3132.25 342.234  14
   5  -8   5-27.4792 125.227  14
   5  -8   6 3099.91 328.936  14
   5  -8   7 2607.31 286.739  14
   5  -7  -8 7801.99 306.728  15
   5  -7  -7 18029.4 630.428  15
   5  -7  -6 43710.6 1138.78  15
   5  -7  -6 44958.4 1054.81  14
   5  -7  -5 18184.4 801.702  15
   5  -7  -5 18909.0 773.163  14
   5  -7  -4 17134.9 810.941  15
   5  -7  -4 17176.9 778.098  14
   5  -7  -3 1666.79 277.032  15
   5  -7  -3 1498.64 258.802  14
   5  -7  -2 70055.7 1629.13  15
   5  -7  -2 72059.6 1590.50  14
   5  -7  -1 69362.4 1593.71  15
   5  -7  -1 72054.9 1568.96  14
   5  -7   0 393.577 179.175  15
   5  -7   0 423.056 160.776  14
   5  -7   1 30061.3 1045.93  15
   5  -7   1 31521.2 1027.53  14
   5  -7   2 33554.8 1113.35  15
   5  -7   2 34311.8 1075.14  14
   5  -7   3 29530.7 1932.40   2
   5  -7   3 29667.1 1012.07  14
   5  -7   4 9821.08 591.901  14
   5  -7   5 22313.7 873.411  14
   5  -7   6 25467.1 919.771  14
   5  -7   7 10142.6 554.150  14
   5  -6  -8 571.349 138.852  15
   5  -6  -8 489.528 119.481  14
   5  -6  -7 1291.81 229.874  15
   5  -6  -7 1381.91 220.833  14
   5  -6  -6 284.129 155.049  15
   5  -6  -6 277.094 156.820  14
   5  -6  -5 215.136 145.391  15
   5  -6  -5 405.252 183.627  14
   5  -6  -4 3651.98 387.177  15
   5  -6  -4 3936.82 402.005  14
   5  -6  -3 2941.50 346.626  15
   5  -6  -3 2833.57 333.468  14
   5  -6  -2 1927.14 285.091  15
   5  -6  -2 2089.64 294.246  14
   5  -6  -1 39756.5 1153.62  15
   5  -6  -1 40678.1 1157.38  14
   5  -6   0 11240.8 618.466  15
   5  -6   0 11730.3 616.178  14
   5  -6   1 5488.45 437.203  15
   5  -6   1 5545.59 424.155  14
   5  -6   2 13713.1 699.169  15
   5  -6   2 12752.6 1219.74   2
   5  -6   2 14255.9 680.218  14
   5  -6   3 5732.85 855.845   2
   5  -6   3 6502.14 477.155  14
   5  -6   4 22062.2 1687.93   2
   5  -6   4 20982.6 854.356  14
   5  -6   5 38323.0 1154.30  14
   5  -6   6 9163.98 565.976  14
   5  -6   7 5967.52 442.818  14
   5  -5  -9 10787.2 417.024  15
   5  -5  -9 10298.0 448.655  14
   5  -5  -8 9198.81 492.089  15
   5  -5  -8 8911.06 525.164  14
   5  -5  -7 11881.5 626.020  15
   5  -5  -7 12163.5 681.611  14
   5  -5  -6 56473.8 1409.23  15
   5  -5  -6 59601.0 1546.10  14
   5  -5  -5 49869.5 1332.20  15
   5  -5  -5 49687.9 1408.01  14
   5  -5  -4 28352.2 986.972  15
   5  -5  -4 28910.5 1055.49  14
   5  -5  -3 70750.5 1513.75  15
   5  -5  -3 73214.3 1605.20  14
   5  -5   2 29389.9 1775.69   2
   5  -5   3 21398.9 1586.44   2
   5  -5   3 22030.0 835.524  14
   5  -5   4 48028.4 2456.50   2
   5  -5   4 49000.8 1275.14  14
   5  -5   5 54354.1 1359.99  14
   5  -5   6 4091.97 388.074  14
   5  -5   7 22002.8 814.137  14
   5  -4 -10 2444.61 227.894  14
   5  -4  -9 339.199 134.606  15
   5  -4  -9-21.8239 132.410  14
   5  -4  -8 966.349 197.132  15
   5  -4  -8 869.802 237.377  14
   5  -4  -7 4708.77 412.457  15
   5  -4  -7 4173.24 450.498  14
   5  -4  -6 660.916 176.266  15
   5  -4  -6 952.777 248.742  14
   5  -4  -5 12212.8 636.176  15
   5  -4  -5 11995.8 699.116  14
   5  -4   1 64578.2 2448.25   2
   5  -4   2 14302.2 1214.34   2
   5  -4   3 41752.1 2142.90   2
   5  -4   3 42993.4 1129.71  14
   5  -4   4 68.7452 91.6573  14
   5  -4   4-107.666 247.376   2
   5  -4   5 96.9783 113.338  14
   5  -4   6 32389.8 1028.37  14
   5  -3 -11 6114.57 310.694  14
   5  -3 -10 24419.7 830.324  14
   5  -3  -9 27676.9 1025.35  14
   5  -3  -8 783.452 248.713  14
   5  -3  -7 13490.4 649.262  15
   5  -3  -7 14147.2 800.028  14
   5  -3  -6 25493.5 1025.56  14
   5  -3   1 6667.78 793.873   2
   5  -3   2 16338.9 1251.05   2
   5  -3   3 40153.3 2041.58   2
   5  -3   4 6770.53 463.198  14
   5  -3   4 5372.38 807.273   2
   5  -3   5 8697.68 531.461  14
   5  -3   6 5475.41 419.405  14
   5  -2 -11 5786.25 381.487  14
   5  -2 -10 3980.85 398.130  14
   5  -2  -9 349.070 176.856  14
   5  -2  -8 222.451 182.849  14
   5  -2  -7 1330.16 265.911  14
   5  -2  -6 22527.1 931.422  14
   5  -2   1 46698.2 1935.59   2
   5  -2   2 29121.9 1604.89   2
   5  -2   3 51806.2 2245.45   2
   5  -2   4 4610.12 367.844  14
   5  -2   4 3267.01 604.132   2
   5  -2   5 1485.96 232.407  14
   5  -1 -12 13823.1 492.037  14
   5  -1 -11 19121.3 761.893  14
   5  -1 -10 5552.39 504.501  14
   5  -1  -9 9619.20 671.187  14
   5  -1  -8 56258.9 1571.71  14
   5  -1  -7 13707.9 758.244  14
   5  -1   1 5381.48 645.855   2
   5  -1   2 18929.1 1257.30   2
   5  -1   3 9122.74 925.354   2
   5   0 -12 476.741 147.089  14
   5   0 -11 1818.71 292.920  14
   5   0 -10 13410.5 763.724  14
   5   0  -9 16904.3 872.573  14
   5   0  -8 16811.7 850.298  14
   5   0  -7 3356.45 374.443  14
   5   1 -13 457.653 98.2779  14
   5   1 -12 10262.1 525.578  14
   5   1 -11 7789.24 547.123  14
   5   1 -10 5033.98 481.397  14
   5   1  -9 6993.70 560.077  14
   5   1  -8 12670.6 719.697  14
   5   2 -13 813.108 128.790  14
   5   2 -12 40435.5 1047.74  14
   5   2 -11 24453.8 947.648  14
   5   2 -10 9653.28 643.042  14
   5   2  -9 7249.00 549.004  14
   5   2  -8 62701.8 1505.85  14
   5   3 -13 13097.8 444.513  14
   5   3 -12 71.3301 101.855  14
   5   3 -11 941.989 205.973  14
   5   3 -10 20694.1 883.482  14
   5   4 -12 10152.1 478.089  14
   6 -12   1 7536.81 361.184  12
   6 -12   2 11016.1 437.066  12
   6 -11  -2 720.193 113.003  15
   6 -11  -1 906.175 181.641  12
   6 -11   0 2406.77 291.516  12
   6 -11   1-83.1378 176.055  12
   6 -11   2 1160.85 241.372  12
   6 -11   3 8308.83 486.934  12
   6 -11   4 4161.40 297.107  12
   6 -10  -4 5810.68 292.557  15
   6 -10  -3 14390.3 533.987  15
   6 -10  -2 18295.4 748.067  12
   6 -10  -2 18559.1 668.730  15
   6 -10  -1 15904.7 782.353  12
   6 -10  -1 16303.7 667.836  15
   6 -10   0 10967.1 700.228  12
   6 -10   0 11340.3 576.833  15
   6 -10   0 11020.2 472.718  14
   6 -10   1 30075.7 808.194  14
   6 -10   2 11901.5 520.970  14
   6 -10   3 8798.11 586.323  12
   6 -10   3 8372.31 434.136  14
   6 -10   4 18659.7 732.146  12
   6 -10   4 18119.5 616.163  14
   6 -10   5 3085.90 248.620  14
   6 -10   6 178.907 83.0845  14
   6  -9  -5 5358.47 316.540  15
   6  -9  -4 214.158 152.107  15
   6  -9  -3 324.832 182.305  12
   6  -9  -3 712.027 208.127  15
   6  -9  -3 752.318 136.631  14
   6  -9  -2 4269.20 387.698  15
   6  -9  -2 4002.42 330.304  14
   6  -9  -1 5306.12 449.849  15
   6  -9  -1 5857.36 405.050  14
   6  -9   0 3090.28 360.191  15
   6  -9   0 2999.94 307.313  14
   6  -9   1 11952.8 657.464  15
   6  -9   1 11083.0 583.641  14
   6  -9   2 31374.5 966.863  14
   6  -9   3 1912.88 254.647  14
   6  -9   4 13442.6 608.379  14
   6  -9   5 25922.4 800.331  14
   6  -9   6 6366.63 370.965  14
   6  -8  -6 12847.6 496.797  15
   6  -8  -5 11691.4 562.746  15
   6  -8  -5 11085.5 483.572  14
   6  -8  -4 7131.86 505.933  12
   6  -8  -4 7007.65 487.966  15
   6  -8  -4 7021.21 441.584  14
   6  -8  -3 26775.8 970.804  15
   6  -8  -3 25878.1 888.718  14
   6  -8  -2 5298.45 465.260  15
   6  -8  -2 5106.40 421.878  14
   6  -8  -1 22751.7 934.426  15
   6  -8  -1 24398.5 906.710  14
   6  -8   0 17926.7 830.202  15
   6  -8   0 18258.9 796.352  14
   6  -8   1 17278.7 817.756  15
   6  -8   1 18115.0 791.532  14
   6  -8   2 11463.9 631.625  14
   6  -8   3 18030.0 776.141  14
   6  -8   4 17751.5 751.252  14
   6  -8   5 1385.48 230.885  14
   6  -8   6 3224.84 298.034  14
   6  -7  -7 871.461 156.012  15
   6  -7  -7 876.579 133.230  14
   6  -7  -6 1633.76 238.876  15
   6  -7  -6 1795.59 229.285  14
   6  -7  -5 5466.22 433.429  15
   6  -7  -5 5436.32 424.644  14
   6  -7  -4 2179.82 309.098  15
   6  -7  -4 1932.44 270.773  14
   6  -7  -3 14104.2 735.809  15
   6  -7  -3 15013.0 745.802  14
   6  -7  -2 6793.64 521.660  15
   6  -7  -2 7006.10 518.481  14
   6  -7  -1 583.439 185.047  15
   6  -7  -1 523.380 184.390  14
   6  -7   0 16149.3 794.661  15
   6  -7   0 16003.9 765.754  14
   6  -7   1 16458.6 802.517  15
   6  -7   1 17630.0 799.120  14
   6  -7   2 11781.3 652.306  14
   6  -7   3 14518.7 718.734  14
   6  -7   4 23897.4 896.839  14
   6  -7   5 17227.0 743.716  14
   6  -7   6 14336.0 632.157  14
   6  -6  -8 7135.49 343.449  15
   6  -6  -8 7605.21 383.735  14
   6  -6  -7 15783.5 628.411  15
   6  -6  -7 15957.3 670.490  14
   6  -6  -6 7424.26 497.022  15
   6  -6  -6 6991.85 503.685  14
   6  -6  -5 6687.96 496.777  15
   6  -6  -5 7326.65 547.011  14
   6  -6  -4 7999.63 556.340  15
   6  -6  -4 9334.61 611.615  14
   6  -6  -3 2986.11 349.232  15
   6  -6  -3 2869.78 358.418  14
   6  -6  -2 4519.36 428.744  15
   6  -6  -2 5005.09 450.987  14
   6  -6  -1 20941.2 889.094  15
   6  -6  -1 21658.0 887.879  14
   6  -6   0 10623.7 638.487  15
   6  -6   0 10590.1 624.418  14
   6  -6   1 1982.44 301.044  15
   6  -6   1 2332.55 309.017  14
   6  -6   2-55.5770 132.240  14
   6  -6   3 535.335 180.190  14
   6  -6   4 593.880 184.839  14
   6  -6   5 4326.26 389.420  14
   6  -6   6 296.388 147.979  14
   6  -5  -9 5625.66 332.609  14
   6  -5  -8 15705.2 578.112  15
   6  -5  -8 15501.3 674.649  14
   6  -5  -7 23368.6 820.377  15
   6  -5  -7 22593.4 913.523  14
   6  -5  -6 16945.1 749.943  15
   6  -5  -6 16392.9 816.064  14
   6  -5  -5 2058.61 287.786  15
   6  -5  -5 2179.39 334.188  14
   6  -5  -4 22443.6 892.010  15
   6  -5  -4 22317.1 948.250  14
   6  -5  -3 180361. 2480.72  15
   6  -5  -3 176461. 2563.71  14
   6  -5  -2 25949.3 940.619  15
   6  -5  -2 25042.1 951.923  14
   6  -5  -1 23381.8 897.548  15
   6  -5  -1 22860.6 890.243  14
   6  -5   0 30506.8 1030.13  15
   6  -5   0 30637.0 1015.66  14
   6  -5   1 20613.2 833.067  14
   6  -5   2 25673.1 934.524  14
   6  -5   3 24368.0 915.203  14
   6  -5   4 70028.3 1529.02  14
   6  -5   5 30115.9 983.055  14
   6  -5   6 25062.6 831.137  14
   6  -4 -10 1937.68 200.225  14
   6  -4  -9 8378.27 504.595  14
   6  -4  -8 24822.4 956.018  14
   6  -4  -7 2730.03 292.382  15
   6  -4  -7 2734.89 373.124  14
   6  -4  -6 7557.60 496.274  15
   6  -4  -6 6833.66 556.047  14
   6  -4  -5 41.8399 102.192  15
   6  -4  -5 50.8956 138.542  14
   6  -4  -4 10682.6 590.371  15
   6  -4  -4 11240.8 669.282  14
   6  -4  -3 8680.52 527.241  15
   6  -4  -3 8138.40 550.698  14
   6  -4  -2 5303.81 430.258  14
   6  -4   0 1410.35 230.258  15
   6  -4   0 1829.86 253.664  14
   6  -4   1 611.724 178.438  14
   6  -4   2 7190.06 957.763   2
   6  -4   2 6030.90 443.146  14
   6  -4   3 4238.88 757.012   2
   6  -4   3 5484.53 435.163  14
   6  -4   4 2230.51 286.172  14
   6  -4   5 4695.54 392.252  14
   6  -3 -11 2716.16 204.222  14
   6  -3 -10 3957.31 337.355  14
   6  -3  -9 2403.67 331.392  14
   6  -3  -8 18841.8 891.048  14
   6  -3  -7 27362.7 1083.28  14
   6  -3  -6 15710.0 814.383  14
   6  -3  -5 86607.3 1826.54  14
   6  -3  -4 59141.0 1444.74  14
   6  -3   1 29447.6 926.297  14
   6  -3   2 71018.5 2843.52   2
   6  -3   2 74670.4 1484.31  14
   6  -3   3 54214.9 2542.24   2
   6  -3   3 56484.8 1317.76  14
   6  -3   4 19443.2 766.738  14
   6  -3   5 24098.0 816.718  14
   6  -2 -11 7580.71 415.806  14
   6  -2 -10 5262.05 439.756  14
   6  -2  -9 1697.01 306.262  14
   6  -2  -8 7590.89 585.465  14
   6  -2  -7 473.469 193.546  14
   6  -2  -6 354.757 176.228  14
   6  -2  -5 3578.29 365.717  14
   6  -2   2 8041.42 934.119   2
   6  -2   2 7315.89 451.621  14
   6  -2   3 12638.5 600.952  14
   6  -2   4 3751.94 327.909  14
   6  -1 -12 10529.7 398.642  14
   6  -1 -11 21328.4 756.475  14
   6  -1 -10 2628.20 341.542  14
   6  -1  -9 833.477 241.136  14
   6  -1  -8 17511.0 870.979  14
   6  -1  -7 29692.0 1094.30  14
   6  -1  -6 29336.2 1044.55  14
   6   0 -12-33.8553 93.5751  14
   6   0 -11 70.8523 137.324  14
   6   0 -10 153.727 173.910  14
   6   0  -9 891.879 241.502  14
   6   0  -8 663.199 197.708  14
   6   0  -7 2341.65 320.308  14
   6   1 -12 7028.99 397.530  14
   6   1 -11 6166.97 449.949  14
   6   1 -10 19894.7 861.645  14
   6   1  -9 20488.3 897.907  14
   6   1  -8 6603.48 510.070  14
   6   2 -12 2.58977 98.8669  14
   6   2 -11 3233.82 337.496  14
   6   2 -10 167.505 131.327  14
   6   2  -9 1617.23 263.643  14
   7 -11  -1 839.200 136.097  12
   7 -11   0 1549.10 199.501  12
   7 -11   1 5811.34 363.630  12
   7 -11   2 35.5731 104.783  12
   7 -10  -3 973.764 141.932  15
   7 -10  -2 4854.38 350.189  12
   7 -10  -2 4655.83 306.383  15
   7 -10  -1 16571.5 709.989  12
   7 -10  -1 15826.8 481.712  14
   7 -10   0 17393.8 769.057  12
   7 -10   0 17647.5 548.640  14
   7 -10   1 14878.8 520.118  14
   7 -10   2 14564.4 674.272  12
   7 -10   2 16306.1 546.727  14
   7 -10   3 4340.27 345.248  12
   7 -10   3 4749.01 291.953  14
   7 -10   4 8571.05 358.279  14
   7 -10   5 10757.3 347.554  14
   7  -9  -5 1303.06 138.655  15
   7  -9  -4 911.438 159.407  15
   7  -9  -3 181.804 136.725  12
   7  -9  -3 151.406 130.817  15
   7  -9  -3 204.846 96.2673  14
   7  -9  -2 911.109 202.154  15
   7  -9  -2 776.703 155.733  14
   7  -9  -1 41.9487 166.214  15
   7  -9  -1 9.76417 112.146  14
   7  -9   0 719.988 168.102  14
   7  -9   1 125.708 124.253  14
   7  -9   2 787.281 179.139  14
   7  -9   3-57.3069 117.550  14
   7  -9   4 1735.80 209.770  14
   7  -9   5 12977.2 473.480  14
   7  -8  -6 18233.1 500.116  15
   7  -8  -5 17551.2 608.617  15
   7  -8  -5 17094.3 565.348  14
   7  -8  -4 21451.0 804.908  12
   7  -8  -4 20845.2 743.185  15
   7  -8  -4 21246.4 714.616  14
   7  -8  -3 20045.6 787.006  15
   7  -8  -3 20752.5 768.247  14
   7  -8  -2 13158.8 670.582  15
   7  -8  -2 13552.5 647.601  14
   7  -8  -1 9850.77 597.849  15
   7  -8  -1 10924.9 595.825  14
   7  -8   0 43742.6 1180.84  14
   7  -8   1 44537.2 1185.72  14
   7  -8   2 33156.0 1004.72  14
   7  -8   3 14508.8 643.710  14
   7  -8   4 9229.03 493.145  14
   7  -8   5 11766.3 502.772  14
   7  -8   6 6723.71 328.525  14
   7  -7  -7 18.7617 63.5153  15
   7  -7  -7-129.693 84.5830  14
   7  -7  -6-71.0219 108.349  15
   7  -7  -6-9.89653 99.3404  14
   7  -7  -5 1695.23 246.165  15
   7  -7  -5 1779.14 242.465  14
   7  -7  -4 1787.55 263.968  15
   7  -7  -4 1906.30 279.010  14
   7  -7  -3 1254.28 244.139  15
   7  -7  -3 777.767 206.266  14
   7  -7  -2-80.7312 165.175  15
   7  -7  -2 32.4067 140.826  14
   7  -7  -1 82.9721 154.322  15
   7  -7  -1 54.4302 146.535  14
   7  -7   0 19288.9 829.806  14
   7  -7   1 8252.83 541.620  14
   7  -7   2 1173.62 241.165  14
   7  -7   3 8000.87 510.853  14
   7  -7   4 11805.2 582.598  14
   7  -7   5 3315.29 295.401  14
   7  -7   6 14350.1 502.121  14
   7  -6  -8 12429.7 451.564  14
   7  -6  -7 27419.0 724.203  15
   7  -6  -7 27593.7 822.601  14
   7  -6  -6 10071.9 517.771  15
   7  -6  -6 9887.19 564.017  14
   7  -6  -5 20499.1 800.800  15
   7  -6  -5 20133.4 853.656  14
   7  -6  -4 8214.24 536.557  15
   7  -6  -4 7363.54 537.862  14
   7  -6  -3 10142.8 615.582  15
   7  -6  -3 9917.72 623.866  14
   7  -6  -2 30575.2 1067.44  15
   7  -6  -2 31377.2 1091.97  14
   7  -6  -1 25186.6 972.561  15
   7  -6  -1 24432.5 950.825  14
   7  -6   0 29372.4 1037.24  14
   7  -6   1 8914.40 575.748  14
   7  -6   2 55947.7 1375.06  14
   7  -6   3 34799.6 1059.31  14
   7  -6   4 2460.34 292.167  14
   7  -6   5 6427.47 409.877  14
   7  -5  -9 139.550 77.5758  14
   7  -5  -8-139.165 135.310  14
   7  -5  -7 1833.87 236.961  15
   7  -5  -7 1568.22 267.764  14
   7  -5  -6 538.558 162.213  15
   7  -5  -6 258.225 196.243  14
   7  -5  -5 3011.01 321.364  15
   7  -5  -5 2555.17 351.226  14
   7  -5  -4 18890.1 808.534  15
   7  -5  -4 18191.4 849.340  14
   7  -5  -3 12.1967 140.339  15
   7  -5  -3-42.5177 149.642  14
   7  -5  -2 938.855 228.126  15
   7  -5  -2 967.820 200.384  14
   7  -5  -1 4687.18 434.620  15
   7  -5  -1 5128.61 442.258  14
   7  -5   0 4588.51 415.937  14
   7  -5   1 8824.49 558.007  14
   7  -5   2 14094.5 693.767  14
   7  -5   3 17905.5 758.474  14
   7  -5   4 3690.96 339.283  14
   7  -5   5 10216.5 495.603  14
   7  -4 -10 2475.23 195.299  14
   7  -4  -9 14016.7 589.241  14
   7  -4  -8 12737.7 656.808  14
   7  -4  -7 14180.1 747.643  14
   7  -4  -6 13574.0 746.707  14
   7  -4  -5 34031.1 1025.42  15
   7  -4  -5 33252.7 1160.02  14
   7  -4  -4 1482.77 243.259  15
   7  -4  -4 1708.29 288.247  14
   7  -4  -3 2277.76 301.261  15
   7  -4  -3 2329.57 312.373  14
   7  -4  -2 17931.6 784.065  15
   7  -4  -2 19084.6 829.483  14
   7  -4  -1 19414.3 820.405  14
   7  -4   0 6220.69 463.173  14
   7  -4   1 817.629 204.671  14
   7  -4   2 295.523 135.451  14
   7  -4   3 11695.5 601.547  14
   7  -4   4 20355.6 744.274  14
   7  -4   5 203.437 114.118  14
   7  -3 -11 920.243 109.288  14
   7  -3 -10 544.896 143.916  14
   7  -3  -9 5404.21 418.689  14
   7  -3  -8 16098.0 790.526  14
   7  -3  -7 1910.67 308.862  14
   7  -3  -6 8360.80 597.298  14
   7  -3  -5 98123.5 1961.34  14
   7  -3  -4 44098.5 1273.25  14
   7  -3  -3 1245.77 214.542  14
   7  -3  -2 21233.5 840.869  14
   7  -3  -1 50258.7 1265.31  14
   7  -3   0 29700.0 962.374  14
   7  -3   1 21197.9 805.440  14
   7  -3   2 70779.9 1446.73  14
   7  -3   3 28787.2 886.736  14
   7  -3   4 19329.0 678.116  14
   7  -2 -11 5354.67 307.364  14
   7  -2 -10 25375.3 829.362  14
   7  -2  -9 20163.3 840.883  14
   7  -2  -8 7038.40 535.594  14
   7  -2  -7 4255.50 420.652  14
   7  -2  -6 18042.6 838.285  14
   7  -2  -5 92845.7 1846.28  14
   7  -2  -4 28162.2 978.645  14
   7  -2  -3 24497.6 882.966  14
   7  -2  -2 2105.97 262.372  14
   7  -2  -1 5611.93 415.949  14
   7  -1 -11 75.7864 94.2863  14
   7  -1 -10 128.464 138.577  14
   7  -1  -9 11418.0 646.728  14
   7  -1  -8 7490.94 543.353  14
   7  -1  -7 41984.9 1264.50  14
   7  -1  -6 28639.7 1016.00  14
   7  -1  -5 20400.3 823.223  14
   7   0 -12 5075.75 264.496  14
   7   0 -11 2291.83 254.730  14
   7   0 -10 11033.2 591.580  14
   7   0  -9 5917.37 465.767  14
   7   0  -8 32.0251 127.677  14
   7   0  -7 24728.3 925.746  14
   7   1 -12 506.949 106.668  14
   7   1 -11 3074.02 280.907  14
   7   1 -10 6028.80 431.697  14
   7   1  -9 10027.3 570.489  14
   8 -10  -1 1870.39 207.213  12
   8 -10   0 12999.7 525.368  12
   8 -10   0 12166.7 365.207  14
   8 -10   1 7156.02 384.637  12
   8 -10   1 6774.83 281.796  14
   8 -10   2 2108.58 185.740  12
   8 -10   2 2481.93 168.897  14
   8  -9  -3 4467.41 304.548  12
   8  -9  -3 4354.96 248.472  14
   8  -9  -2 10861.7 429.859  14
   8  -9  -1 22514.3 651.581  14
   8  -9   0 6322.58 362.453  14
   8  -9   1 881.430 149.580  14
   8  -9   2 4176.81 279.684  14
   8  -9   3 504.843 110.387  14
   8  -9   4-13.1826 54.2177  14
   8  -8  -5 1248.40 146.199  14
   8  -8  -4 6.68422 110.818  12
   8  -8  -4 2.38128 96.3955  15
   8  -8  -4-162.940 114.351  14
   8  -8  -3 12837.0 540.822  14
   8  -8  -2 26772.4 815.710  14
   8  -8  -1 10849.4 535.582  14
   8  -8   0 8148.07 469.589  14
   8  -8   1 15061.3 613.826  14
   8  -8   2 12314.6 536.204  14
   8  -8   3 8512.72 417.451  14
   8  -8   4 11111.8 421.417  14
   8  -7  -7 871.072 106.373  14
   8  -7  -6 7729.77 319.742  15
   8  -7  -6 8965.29 402.136  14
   8  -7  -5 2740.27 248.286  15
   8  -7  -5 3361.81 293.772  14
   8  -7  -4 1434.30 211.271  15
   8  -7  -4 1504.19 227.726  14
   8  -7  -3 627.204 176.089  15
   8  -7  -3 906.342 215.202  14
   8  -7  -2 7365.14 493.788  14
   8  -7  -1 4775.18 410.192  14
   8  -7   0 5963.13 437.844  14
   8  -7   1 1178.99 224.057  14
   8  -7   2 308.577 155.544  14
   8  -7   3 88.0165 104.600  14
   8  -7   4 497.246 124.616  14
   8  -7   5 895.886 114.994  14
   8  -6  -8 6980.96 289.305  14
   8  -6  -7 858.329 158.395  14
   8  -6  -6 9571.87 422.729  15
   8  -6  -6 9932.20 508.734  14
   8  -6  -5 25312.4 782.187  15
   8  -6  -5 27965.7 916.624  14
   8  -6  -4 18011.6 717.575  15
   8  -6  -4 18753.4 788.081  14
   8  -6  -3 6537.52 464.337  15
   8  -6  -3 6945.24 504.305  14
   8  -6  -2 23535.5 901.071  14
   8  -6  -1 65973.8 1478.77  14
   8  -6   0 35774.8 1073.67  14
   8  -6   1 17273.6 727.851  14
   8  -6   2 15193.7 653.326  14
   8  -6   3 26071.8 785.376  14
   8  -6   4 14802.7 530.033  14
   8  -5  -9 1844.75 150.427  14
   8  -5  -8 16626.0 574.375  14
   8  -5  -7 12735.5 584.128  14
   8  -5  -6 3487.31 361.007  14
   8  -5  -5 411.516 134.905  15
   8  -5  -5 262.397 167.738  14
   8  -5  -4 3856.62 336.730  15
   8  -5  -4 4360.18 421.083  14
   8  -5  -3 3820.91 390.499  14
   8  -5  -2 695.087 193.320  14
   8  -5  -1 209.037 143.683  14
   8  -5   0 7635.06 509.125  14
   8  -5   1 2389.67 285.676  14
   8  -5   2 3367.63 320.910  14
   8  -5   3 1028.39 175.879  14
   8  -5   4 645.923 128.446  14
   8  -4  -9 17647.2 572.077  14
   8  -4  -8 25272.8 805.540  14
   8  -4  -7 7203.00 488.848  14
   8  -4  -6 65.7257 161.301  14
   8  -4  -5 322.181 165.006  14
   8  -4  -4 34852.4 1122.32  14
   8  -4  -3 35049.0 1112.42  14
   8  -4  -2 38788.2 1146.28  14
   8  -4  -1 19602.6 806.481  14
   8  -4   0 19202.8 776.223  14
   8  -4   1 46443.7 1148.53  14
   8  -4   2 14273.5 605.304  14
   8  -4   3 9192.09 447.026  14
   8  -3 -10 1122.27 145.211  14
   8  -3  -9 675.193 161.649  14
   8  -3  -8-108.022 159.553  14
   8  -3  -7 18942.1 802.117  14
   8  -3  -6 96.5597 153.132  14
   8  -3  -5 8436.35 554.790  14
   8  -3  -4 1428.16 254.907  14
   8  -3  -3 2543.07 313.033  14
   8  -3  -2 1185.07 227.122  14
   8  -3  -1 3648.20 341.290  14
   8  -3   0-125.158 104.056  14
   8  -3   1 1278.14 199.722  14
   8  -2 -10 14112.5 521.996  14
   8  -2  -9 12695.7 587.329  14
   8  -2  -8 10154.3 576.838  14
   8  -2  -7 19494.1 814.110  14
   8  -2  -6 70682.1 1554.72  14
   8  -2  -5 4806.87 409.988  14
   8  -2  -4 312.953 139.964  14
   8  -2  -3 32170.2 986.759  14
   8  -2  -2 33687.5 981.754  14
   8  -1 -11 218.623 76.0975  14
   8  -1 -10 1477.89 197.158  14
   8  -1  -9 164.950 131.550  14
   8  -1  -8 695.379 181.447  14
   8  -1  -7 9874.56 571.587  14
   8  -1  -6 18266.8 765.190  14
   8   0 -11 14510.8 440.650  14
   8   0 -10 26024.7 736.154  14
   8   0  -9 8807.78 481.369  14
   8   0  -8 15526.4 660.967  14
   9  -9  -1 10986.1 430.212  12
   9  -9  -1 10248.1 324.951  14
   9  -9   0 1105.72 116.023  14
   9  -9   1 6292.06 245.714  14
   9  -8  -4 108.006 65.3777  14
   9  -8  -3 614.801 113.099  14
   9  -8  -2 530.672 123.058  14
   9  -8  -1 10915.7 435.503  14
   9  -8   0-0.81554 84.6448  14
   9  -8   1 304.799 99.4181  14
   9  -8   2 6094.20 274.999  14
   9  -7  -6 3883.99 201.332  14
   9  -7  -5 9324.06 378.274  14
   9  -7  -4 10894.0 458.015  14
   9  -7  -3 27028.4 752.995  14
   9  -7  -2 21947.6 693.878  14
   9  -7  -1 6556.92 384.888  14
   9  -7   0 8161.63 413.725  14
   9  -7   1 10327.8 437.687  14
   9  -7   2 360.214 98.1261  14
   9  -7   3 1405.80 129.195  14
   9  -6  -7 3091.39 200.072  14
   9  -6  -6-16.6250 88.3337  14
   9  -6  -5 3077.99 267.862  14
   9  -6  -4 3840.05 320.914  14
   9  -6  -3 1531.36 224.085  14
   9  -6  -2 3362.29 311.162  14
   9  -6  -1 9764.51 497.897  14
   9  -6   0 6046.23 380.817  14
   9  -6   1 5634.50 340.973  14
   9  -6   2 9699.91 398.263  14
   9  -6   3 11316.5 347.513  14
   9  -5  -8 2068.47 161.538  14
   9  -5  -7 10158.5 432.158  14
   9  -5  -6 9401.33 467.881  14
   9  -5  -5 7555.04 448.653  14
   9  -5  -4 21424.2 766.311  14
   9  -5  -3 19451.4 734.235  14
   9  -5  -2 5551.19 399.853  14
   9  -5  -1 14934.9 617.879  14
   9  -5   0 6314.57 386.359  14
   9  -5   1 775.799 134.473  14
   9  -5   2 1777.39 177.322  14
   9  -4  -9 14.3861 49.3451  14
   9  -4  -8 579.249 122.580  14
   9  -4  -7 17620.9 622.395  14
   9  -4  -6 15870.0 640.023  14
   9  -4  -5 7578.95 464.910  14
   9  -4  -4 5070.06 391.974  14
   9  -4  -3 30425.7 917.347  14
   9  -4  -2 11310.3 556.294  14
   9  -4  -1 8302.72 458.259  14
   9  -4   0 27300.2 769.888  14
   9  -4   1 14676.8 511.307  14
   9  -3  -9 12099.4 411.433  14
   9  -3  -8 10610.8 464.280  14
   9  -3  -7 578.191 137.677  14
   9  -3  -6 2580.07 277.689  14
   9  -3  -5 15805.5 659.466  14
   9  -3  -4 11525.3 566.151  14
   9  -3  -3 18019.4 691.388  14
   9  -3  -2 15822.9 620.499  14
   9  -2  -9 3516.13 245.477  14
   9  -2  -8 16.9386 87.6242  14
   9  -2  -7 151.632 127.725  14
   9  -2  -6 3271.03 301.283  14
   9  -2  -5 25373.9 802.052  14
   9  -1  -9 6015.91 310.975  14
   9  -1  -8 981.170 164.468  14
  10  -7  -3 18392.7 420.383  14
  10  -7  -2 3905.51 203.273  14
  10  -7  -1 4190.58 200.738  14
  10  -6  -5 49.9534 50.3436  14
  10  -6  -4 3399.10 214.457  14
  10  -6  -3 409.280 102.950  14
  10  -6  -2 1075.12 130.999  14
  10  -6  -1 96.7553 66.0527  14
  10  -5  -6 10138.2 336.664  14
  10  -5  -5 8488.36 348.279  14
  10  -5  -4 13576.5 457.011  14
  10  -5  -3 21356.1 573.617  14
  10  -5  -2 5737.62 292.468  14
  10  -5  -1 5807.80 268.017  14
  10  -4  -7 122.714 50.9701  14
  10  -4  -6 19.6813 69.2852  14
  10  -4  -5 2818.97 217.585  14
  10  -4  -4 141.650 86.4905  14
  10  -4  -3 4162.95 256.099  14
  10  -3  -7 7888.14 295.828  14
  10  -3  -6 9674.76 362.720  14
  10  -3  -5 21097.5 550.488  14
   0   0   0    0.00    0.00   0

TITL jmwtf78 in P1
REM P1 (#1 in standard setting)
CELL 1.54184   8.811736  10.769277  10.987562 111.6688 109.2673  96.5683
ZERR    2.00   0.000550   0.000559   0.000806   0.0058   0.0061   0.0047
LATT -1
SFAC C H N O Se
UNIT 42.00 36.00 6.00 2.00 2.00
TREF
HKLF 4
END
;
_shelx_hkl_checksum   23865

