 
data_shelx
 
_audit_creation_method            'SHELXL-2016/6'
_shelx_SHELXL_version_number      '2016/6'
_chemical_name_systematic         ?
_chemical_name_common             ?
_chemical_melting_point           ?
_chemical_formula_moiety          ?
_chemical_formula_sum
 'C28 H16 N4 O2 Se2' 
_chemical_formula_weight          598.37
_chemical_oxdiff_usercomment 'Tom Se-Hoe'

loop_
 _atom_type_symbol
 _atom_type_description
 _atom_type_scat_dispersion_real
 _atom_type_scat_dispersion_imag
 _atom_type_scat_source
 'C'  'C'   0.0181   0.0091
 'International Tables Vol C Tables 4.2.6.8 and 6.1.1.4'
 'H'  'H'   0.0000   0.0000
 'International Tables Vol C Tables 4.2.6.8 and 6.1.1.4'
 'N'  'N'   0.0311   0.0180
 'International Tables Vol C Tables 4.2.6.8 and 6.1.1.4'
 'O'  'O'   0.0492   0.0322
 'International Tables Vol C Tables 4.2.6.8 and 6.1.1.4'
 'Se'  'Se'  -0.7943   1.1372
 'International Tables Vol C Tables 4.2.6.8 and 6.1.1.4'
 
_space_group_crystal_system       orthorhombic
_space_group_IT_number            29
_space_group_name_H-M_alt         'P c a 21'
_space_group_name_Hall            'P 2c -2ac'
 
_shelx_space_group_comment
;
The symmetry employed for this shelxl refinement is uniquely defined
by the following loop, which should always be used as a source of
symmetry information in preference to the above space-group names.
They are only intended as comments.
;
 
loop_
 _space_group_symop_operation_xyz
 'x, y, z'
 '-x, -y, z+1/2'
 'x+1/2, -y, z'
 '-x+1/2, y, z+1/2'
 
_cell_length_a                    17.3416(6)
_cell_length_b                    5.31770(10)
_cell_length_c                    11.6455(3)
_cell_angle_alpha                 90
_cell_angle_beta                  90
_cell_angle_gamma                 90
_cell_volume                      1073.92(5)
_cell_formula_units_Z             2
_cell_measurement_temperature   130.01(10) 
_cell_measurement_reflns_used   3767
_cell_measurement_theta_min     6.3470
_cell_measurement_theta_max     76.9590
 
_exptl_crystal_description        PLATE
_exptl_crystal_colour             COLOURLESS
_exptl_crystal_density_meas       ?
_exptl_crystal_density_method     ?
_exptl_crystal_density_diffrn     1.850          
_exptl_crystal_F_000              592
_exptl_transmission_factor_min    ?
_exptl_transmission_factor_max    ?
_exptl_crystal_size_max                             0.377
_exptl_crystal_size_mid                             0.174
_exptl_crystal_size_min                             0.057
_exptl_absorpt_coefficient_mu     4.624
_shelx_estimated_absorpt_T_min    ?
_shelx_estimated_absorpt_T_max    ?
_exptl_absorpt_correction_T_min                   0.46673
_exptl_absorpt_correction_T_max                   1.00000
_exptl_absorpt_correction_type            multi-scan
_exptl_absorpt_process_details
;
CrysAlisPro 1.171.38.43 (Rigaku Oxford Diffraction, 2015)
Empirical absorption correction using spherical harmonics,
 implemented in SCALE3 ABSPACK scaling algorithm.
;
_oxdiff_exptl_absorpt_empirical_full_min           0.640
_oxdiff_exptl_absorpt_empirical_full_max           1.656
_oxdiff_exptl_absorpt_empirical_details
;
Empirical correction (ABSPACK) includes:
- Absorption correction using spherical harmonics
- Frame scaling
;
_diffrn_ambient_temperature 130.01(10) 
_diffrn_ambient_environment N~2~
_diffrn_source 'micro-focus sealed X-ray tube'
_diffrn_source_type 'SuperNova (Cu) X-ray Source'
_diffrn_radiation_probe x-ray
_diffrn_radiation_type 'Cu K\a'
_diffrn_radiation_wavelength 1.54184
_diffrn_radiation_monochromator mirror
_diffrn_measurement_device 'four-circle diffractometer'
_diffrn_measurement_device_type 'SuperNova, Dual, Cu at zero, Atlas'
_diffrn_detector 'CCD plate'
_diffrn_detector_type Atlas
_diffrn_measurement_method '\w scans'
_diffrn_detector_area_resol_mean  ?
_diffrn_reflns_number             7049
_diffrn_reflns_av_unetI/netI      0.0242
_diffrn_reflns_av_R_equivalents   0.0270
_diffrn_reflns_limit_h_min        -21
_diffrn_reflns_limit_h_max        21
_diffrn_reflns_limit_k_min        -6
_diffrn_reflns_limit_k_max        5
_diffrn_reflns_limit_l_min        -14
_diffrn_reflns_limit_l_max        14
_diffrn_reflns_theta_min          6.364
_diffrn_reflns_theta_max          77.311
_diffrn_reflns_theta_full         67.684
_diffrn_measured_fraction_theta_max   0.992
_diffrn_measured_fraction_theta_full  0.999
_diffrn_reflns_Laue_measured_fraction_max    0.992
_diffrn_reflns_Laue_measured_fraction_full   0.999
_diffrn_reflns_point_group_measured_fraction_max   0.951
_diffrn_reflns_point_group_measured_fraction_full  0.970
_reflns_number_total              2171
_reflns_number_gt                 2061
_reflns_threshold_expression      'I > 2\s(I)'
_reflns_Friedel_coverage          0.824
_reflns_Friedel_fraction_max      0.905
_reflns_Friedel_fraction_full     0.938
 
_reflns_special_details
;
 Reflections were merged by SHELXL according to the crystal
 class for the calculation of statistics and refinement.
 
 _reflns_Friedel_fraction is defined as the number of unique
 Friedel pairs measured divided by the number that would be
 possible theoretically, ignoring centric projections and
 systematic absences.
;
 
_computing_data_collection     'CrysAlisPro 1.171.38.43 (Rigaku OD, 2015)'
_computing_cell_refinement     'CrysAlisPro 1.171.38.43 (Rigaku OD, 2015)'
_computing_data_reduction      'CrysAlisPro 1.171.38.43 (Rigaku OD, 2015)'
_computing_structure_solution     ?
_computing_structure_refinement 'SHELXL-2016/6 (Sheldrick, 2016)'
_computing_molecular_graphics     ?
_computing_publication_material   ?
_refine_special_details           ?
_refine_ls_structure_factor_coef  Fsqd
_refine_ls_matrix_type            full
_refine_ls_weighting_scheme       calc
_refine_ls_weighting_details
'w=1/[\s^2^(Fo^2^)+(0.0400P)^2^] where P=(Fo^2^+2Fc^2^)/3'
_atom_sites_solution_primary      ?
_atom_sites_solution_secondary    ?
_atom_sites_solution_hydrogens    geom
_refine_ls_hydrogen_treatment     constr
_refine_ls_extinction_method      none
_refine_ls_extinction_coef        .
_refine_ls_abs_structure_details
;
 Flack x determined using 877 quotients [(I+)-(I-)]/[(I+)+(I-)]
 (Parsons, Flack and Wagner, Acta Cryst. B69 (2013) 249-259).
;
_refine_ls_abs_structure_Flack    0.007(17)
_chemical_absolute_configuration  ?
_refine_ls_number_reflns          2171
_refine_ls_number_parameters      163
_refine_ls_number_restraints      1
_refine_ls_R_factor_all           0.0254
_refine_ls_R_factor_gt            0.0237
_refine_ls_wR_factor_ref          0.0635
_refine_ls_wR_factor_gt           0.0612
_refine_ls_goodness_of_fit_ref    1.062
_refine_ls_restrained_S_all       1.061
_refine_ls_shift/su_max           0.001
_refine_ls_shift/su_mean          0.000
 
loop_
 _atom_site_label
 _atom_site_type_symbol
 _atom_site_fract_x
 _atom_site_fract_y
 _atom_site_fract_z
 _atom_site_U_iso_or_equiv
 _atom_site_adp_type
 _atom_site_occupancy
 _atom_site_site_symmetry_order  
 _atom_site_calc_flag
 _atom_site_refinement_flags_posn
 _atom_site_refinement_flags_adp
 _atom_site_refinement_flags_occupancy
 _atom_site_disorder_assembly
 _atom_site_disorder_group
Se1 Se 0.74922(2) 0.15795(5) 0.01705(10) 0.01686(12) Uani 1 1 d . . . . .
C3 C 0.7757(2) 0.6177(6) 0.2972(3) 0.0199(6) Uani 1 1 d . . . . .
H3 H 0.750327 0.632734 0.367287 0.024 Uiso 1 1 calc R U . . .
N1 N 0.68326(15) 0.0984(5) 0.1424(2) 0.0177(5) Uani 1 1 d . . . . .
C2 C 0.75339(15) 0.4334(7) 0.2181(3) 0.0166(7) Uani 1 1 d . . . . .
C4 C 0.83605(18) 0.7776(5) 0.2697(3) 0.0206(5) Uani 1 1 d . . . . .
H4 H 0.851408 0.901016 0.321458 0.025 Uiso 1 1 calc R U . . .
C8 C 0.63300(19) -0.1044(6) 0.1373(3) 0.0185(6) Uani 1 1 d . . . . .
C1 C 0.79119(18) 0.4142(6) 0.1125(3) 0.0179(6) Uani 1 1 d . . . . .
C14 C 0.52734(18) -0.3129(6) 0.2454(3) 0.0231(7) Uani 1 1 d . . . . .
H14 H 0.521146 -0.426308 0.185356 0.028 Uiso 1 1 calc R U . . .
N2 N 0.65094(16) 0.2333(5) 0.3303(2) 0.0186(5) Uani 1 1 d . . . . .
O1 O 0.63228(13) -0.2422(4) 0.0531(2) 0.0229(5) Uani 1 1 d . . . . .
C12 C 0.4894(2) -0.1562(6) 0.4300(3) 0.0238(7) Uani 1 1 d . . . . .
H12 H 0.457273 -0.167288 0.493710 0.029 Uiso 1 1 calc R U . . .
C6 C 0.85195(18) 0.5727(6) 0.0841(3) 0.0202(6) Uani 1 1 d . . . . .
H6 H 0.877141 0.558492 0.013945 0.024 Uiso 1 1 calc R U . . .
C10 C 0.59371(18) 0.0484(6) 0.3300(3) 0.0182(6) Uani 1 1 d . . . . .
C7 C 0.69198(17) 0.2511(5) 0.2370(2) 0.0170(6) Uani 1 1 d . . . . .
C13 C 0.4810(2) -0.3285(6) 0.3410(3) 0.0253(7) Uani 1 1 d . . . . .
H13 H 0.443947 -0.454507 0.346188 0.030 Uiso 1 1 calc R U . . .
C5 C 0.87394(18) 0.7534(6) 0.1641(3) 0.0215(6) Uani 1 1 d . . . . .
H5 H 0.914742 0.860502 0.147075 0.026 Uiso 1 1 calc R U . . .
C11 C 0.54430(19) 0.0304(6) 0.4258(3) 0.0209(6) Uani 1 1 d . . . . .
H11 H 0.548789 0.144444 0.485930 0.025 Uiso 1 1 calc R U . . .
C9 C 0.58446(17) -0.1236(6) 0.2390(3) 0.0187(6) Uani 1 1 d . . . . .
 
loop_
 _atom_site_aniso_label
 _atom_site_aniso_U_11
 _atom_site_aniso_U_22
 _atom_site_aniso_U_33
 _atom_site_aniso_U_23
 _atom_site_aniso_U_13
 _atom_site_aniso_U_12
Se1 0.02006(19) 0.01726(18) 0.01328(19) -0.00112(17) -0.00030(10) 0.00130(10)
C3 0.0197(15) 0.0224(15) 0.0176(16) -0.0010(11) -0.0007(12) 0.0045(13)
N1 0.0206(13) 0.0174(12) 0.0152(12) -0.0014(11) -0.0005(10) 0.0011(10)
C2 0.0172(17) 0.0143(17) 0.0181(16) 0.0033(13) -0.0009(9) 0.0019(10)
C4 0.0258(14) 0.0161(12) 0.0198(14) -0.0010(14) -0.0047(14) -0.0008(12)
C8 0.0189(14) 0.0172(14) 0.0193(15) 0.0010(12) -0.0041(12) 0.0014(12)
C1 0.0208(15) 0.0178(14) 0.0150(14) 0.0004(11) -0.0034(11) 0.0025(12)
C14 0.0200(15) 0.0237(15) 0.0257(17) -0.0025(12) -0.0027(13) -0.0004(12)
N2 0.0207(13) 0.0185(12) 0.0166(12) -0.0021(10) -0.0001(10) 0.0001(10)
O1 0.0281(12) 0.0224(12) 0.0182(10) -0.0042(9) -0.0031(9) 0.0003(10)
C12 0.0179(16) 0.0251(17) 0.0285(18) 0.0014(13) 0.0022(13) 0.0026(13)
C6 0.0234(16) 0.0186(14) 0.0186(15) 0.0016(12) 0.0000(12) 0.0019(13)
C10 0.0163(15) 0.0181(15) 0.0203(14) 0.0003(12) -0.0001(11) 0.0028(11)
C7 0.0197(14) 0.0157(13) 0.0156(14) 0.0003(11) -0.0025(11) 0.0033(11)
C13 0.0176(16) 0.0244(18) 0.0338(19) -0.0022(14) 0.0001(13) -0.0033(12)
C5 0.0234(14) 0.0194(15) 0.0218(16) 0.0034(12) -0.0034(13) -0.0001(13)
C11 0.0199(15) 0.0202(15) 0.0226(14) -0.0034(12) 0.0007(12) 0.0029(13)
C9 0.0192(15) 0.0185(13) 0.0185(16) 0.0003(11) -0.0023(12) 0.0015(11)
 
_geom_special_details
;
 All esds (except the esd in the dihedral angle between two l.s. planes)
 are estimated using the full covariance matrix.  The cell esds are taken
 into account individually in the estimation of esds in distances, angles
 and torsion angles; correlations between esds in cell parameters are only
 used when they are defined by crystal symmetry.  An approximate (isotropic)
 treatment of cell esds is used for estimating esds involving l.s. planes.
;
 
loop_
 _geom_bond_atom_site_label_1
 _geom_bond_atom_site_label_2
 _geom_bond_distance
 _geom_bond_site_symmetry_2
 _geom_bond_publ_flag
Se1 N1 1.881(3) . ?
Se1 C1 1.903(3) . ?
C3 C4 1.386(5) . ?
C3 C2 1.400(5) . ?
C3 H3 0.9300 . ?
N1 C7 1.377(4) . ?
N1 C8 1.388(4) . ?
C2 C1 1.398(5) . ?
C2 C7 1.457(4) . ?
C4 C5 1.400(5) . ?
C4 H4 0.9300 . ?
C8 O1 1.225(4) . ?
C8 C9 1.456(4) . ?
C1 C6 1.389(5) . ?
C14 C13 1.376(5) . ?
C14 C9 1.414(4) . ?
C14 H14 0.9300 . ?
N2 C7 1.303(4) . ?
N2 C10 1.397(4) . ?
C12 C11 1.376(5) . ?
C12 C13 1.391(5) . ?
C12 H12 0.9300 . ?
C6 C5 1.391(5) . ?
C6 H6 0.9300 . ?
C10 C11 1.409(4) . ?
C10 C9 1.409(4) . ?
C13 H13 0.9300 . ?
C5 H5 0.9300 . ?
C11 H11 0.9300 . ?
 
loop_
 _geom_angle_atom_site_label_1
 _geom_angle_atom_site_label_2
 _geom_angle_atom_site_label_3
 _geom_angle
 _geom_angle_site_symmetry_1
 _geom_angle_site_symmetry_3
 _geom_angle_publ_flag
N1 Se1 C1 84.26(13) . . ?
C4 C3 C2 119.1(3) . . ?
C4 C3 H3 120.5 . . ?
C2 C3 H3 120.5 . . ?
C7 N1 C8 124.2(3) . . ?
C7 N1 Se1 117.0(2) . . ?
C8 N1 Se1 118.7(2) . . ?
C3 C2 C1 120.1(3) . . ?
C3 C2 C7 124.7(3) . . ?
C1 C2 C7 115.3(3) . . ?
C3 C4 C5 120.1(3) . . ?
C3 C4 H4 120.0 . . ?
C5 C4 H4 120.0 . . ?
O1 C8 N1 120.4(3) . . ?
O1 C8 C9 127.1(3) . . ?
N1 C8 C9 112.5(3) . . ?
C6 C1 C2 121.4(3) . . ?
C6 C1 Se1 125.9(2) . . ?
C2 C1 Se1 112.8(2) . . ?
C13 C14 C9 119.7(3) . . ?
C13 C14 H14 120.1 . . ?
C9 C14 H14 120.1 . . ?
C7 N2 C10 115.9(3) . . ?
C11 C12 C13 121.4(3) . . ?
C11 C12 H12 119.3 . . ?
C13 C12 H12 119.3 . . ?
C1 C6 C5 117.9(3) . . ?
C1 C6 H6 121.1 . . ?
C5 C6 H6 121.1 . . ?
N2 C10 C11 118.5(3) . . ?
N2 C10 C9 122.7(3) . . ?
C11 C10 C9 118.8(3) . . ?
N2 C7 N1 124.4(3) . . ?
N2 C7 C2 125.0(3) . . ?
N1 C7 C2 110.6(3) . . ?
C14 C13 C12 120.1(3) . . ?
C14 C13 H13 120.0 . . ?
C12 C13 H13 120.0 . . ?
C6 C5 C4 121.5(3) . . ?
C6 C5 H5 119.2 . . ?
C4 C5 H5 119.2 . . ?
C12 C11 C10 119.9(3) . . ?
C12 C11 H11 120.1 . . ?
C10 C11 H11 120.1 . . ?
C10 C9 C14 120.1(3) . . ?
C10 C9 C8 120.0(3) . . ?
C14 C9 C8 119.9(3) . . ?
 
loop_
 _geom_torsion_atom_site_label_1
 _geom_torsion_atom_site_label_2
 _geom_torsion_atom_site_label_3
 _geom_torsion_atom_site_label_4
 _geom_torsion
 _geom_torsion_site_symmetry_1
 _geom_torsion_site_symmetry_2
 _geom_torsion_site_symmetry_3
 _geom_torsion_site_symmetry_4
 _geom_torsion_publ_flag
C1 Se1 N1 C7 1.0(2) . . . . ?
C1 Se1 N1 C8 -174.7(2) . . . . ?
C4 C3 C2 C1 -0.8(5) . . . . ?
C4 C3 C2 C7 178.9(3) . . . . ?
C2 C3 C4 C5 -0.1(5) . . . . ?
C7 N1 C8 O1 -174.9(3) . . . . ?
Se1 N1 C8 O1 0.5(4) . . . . ?
C7 N1 C8 C9 5.9(4) . . . . ?
Se1 N1 C8 C9 -178.7(2) . . . . ?
C3 C2 C1 C6 1.0(5) . . . . ?
C7 C2 C1 C6 -178.6(3) . . . . ?
C3 C2 C1 Se1 -178.1(2) . . . . ?
C7 C2 C1 Se1 2.2(3) . . . . ?
C2 C1 C6 C5 -0.4(5) . . . . ?
Se1 C1 C6 C5 178.7(2) . . . . ?
C7 N2 C10 C11 -176.1(3) . . . . ?
C7 N2 C10 C9 5.2(4) . . . . ?
C10 N2 C7 N1 -1.5(4) . . . . ?
C10 N2 C7 C2 178.7(3) . . . . ?
C8 N1 C7 N2 -4.4(5) . . . . ?
Se1 N1 C7 N2 -179.8(2) . . . . ?
C8 N1 C7 C2 175.4(3) . . . . ?
Se1 N1 C7 C2 -0.1(3) . . . . ?
C3 C2 C7 N2 -1.3(5) . . . . ?
C1 C2 C7 N2 178.4(3) . . . . ?
C3 C2 C7 N1 179.0(3) . . . . ?
C1 C2 C7 N1 -1.4(4) . . . . ?
C9 C14 C13 C12 1.1(5) . . . . ?
C11 C12 C13 C14 -0.9(5) . . . . ?
C1 C6 C5 C4 -0.5(5) . . . . ?
C3 C4 C5 C6 0.7(5) . . . . ?
C13 C12 C11 C10 -0.4(5) . . . . ?
N2 C10 C11 C12 -177.4(3) . . . . ?
C9 C10 C11 C12 1.4(5) . . . . ?
N2 C10 C9 C14 177.6(3) . . . . ?
C11 C10 C9 C14 -1.1(4) . . . . ?
N2 C10 C9 C8 -3.3(5) . . . . ?
C11 C10 C9 C8 178.0(3) . . . . ?
C13 C14 C9 C10 -0.1(5) . . . . ?
C13 C14 C9 C8 -179.2(3) . . . . ?
O1 C8 C9 C10 178.7(3) . . . . ?
N1 C8 C9 C10 -2.1(4) . . . . ?
O1 C8 C9 C14 -2.2(5) . . . . ?
N1 C8 C9 C14 177.0(3) . . . . ?
 
_refine_diff_density_max    0.250
_refine_diff_density_min   -0.545
_refine_diff_density_rms    0.071

_shelx_res_file
;
TITL jmwtf57 in Pca2(1)
    shelx.res
    created by SHELXL-2016/6 at 13:30:35 on 11-Jan-2018
CELL  1.54184  17.3416   5.3177  11.6455   90.000   90.000   90.000
ZERR     2.00   0.0006   0.0001   0.0003    0.000    0.000    0.000
LATT  -1
SYMM  - X, - Y, 1/2 + Z
SYMM  1/2 + X, - Y,   Z
SYMM  1/2 - X,   Y, 1/2 + Z
SFAC  C    H    N    O    SE
UNIT  56 32 8 4 4
MERG   2
FMAP   2
CONF
ACTA
BOND $h
PLAN   20
L.S.  10
WGHT    0.040000
FVAR       7.22951
SE1   5    0.749219    0.157951    0.017053    11.00000    0.02006    0.01726 =
         0.01328   -0.00112   -0.00030    0.00130
C3    1    0.775670    0.617725    0.297243    11.00000    0.01971    0.02236 =
         0.01758   -0.00095   -0.00068    0.00450
AFIX  43
H3    2    0.750327    0.632734    0.367287    11.00000   -1.20000
AFIX   0
N1    3    0.683255    0.098417    0.142388    11.00000    0.02062    0.01741 =
         0.01517   -0.00137   -0.00047    0.00113
C2    1    0.753387    0.433422    0.218110    11.00000    0.01721    0.01430 =
         0.01815    0.00326   -0.00094    0.00192
C4    1    0.836049    0.777559    0.269725    11.00000    0.02582    0.01606 =
         0.01983   -0.00101   -0.00468   -0.00081
AFIX  43
H4    2    0.851408    0.901016    0.321458    11.00000   -1.20000
AFIX   0
C8    1    0.633003   -0.104412    0.137321    11.00000    0.01887    0.01720 =
         0.01934    0.00095   -0.00407    0.00144
C1    1    0.791188    0.414162    0.112476    11.00000    0.02077    0.01779 =
         0.01502    0.00041   -0.00341    0.00251
C14   1    0.527340   -0.312907    0.245447    11.00000    0.01998    0.02368 =
         0.02570   -0.00252   -0.00267   -0.00043
AFIX  43
H14   2    0.521146   -0.426308    0.185356    11.00000   -1.20000
AFIX   0
N2    3    0.650942    0.233267    0.330331    11.00000    0.02074    0.01847 =
         0.01665   -0.00214   -0.00007    0.00006
O1    4    0.632279   -0.242218    0.053078    11.00000    0.02805    0.02243 =
         0.01816   -0.00419   -0.00309    0.00030
C12   1    0.489422   -0.156163    0.429993    11.00000    0.01792    0.02506 =
         0.02855    0.00142    0.00223    0.00256
AFIX  43
H12   2    0.457273   -0.167288    0.493710    11.00000   -1.20000
AFIX   0
C6    1    0.851952    0.572676    0.084149    11.00000    0.02337    0.01862 =
         0.01861    0.00163    0.00004    0.00186
AFIX  43
H6    2    0.877141    0.558492    0.013945    11.00000   -1.20000
AFIX   0
C10   1    0.593712    0.048389    0.330005    11.00000    0.01625    0.01811 =
         0.02029    0.00026   -0.00010    0.00282
C7    1    0.691978    0.251097    0.236958    11.00000    0.01972    0.01574 =
         0.01556    0.00031   -0.00250    0.00328
C13   1    0.480982   -0.328526    0.341036    11.00000    0.01764    0.02441 =
         0.03381   -0.00223    0.00013   -0.00329
AFIX  43
H13   2    0.443947   -0.454507    0.346188    11.00000   -1.20000
AFIX   0
C5    1    0.873937    0.753350    0.164142    11.00000    0.02337    0.01940 =
         0.02181    0.00335   -0.00338   -0.00007
AFIX  43
H5    2    0.914742    0.860502    0.147075    11.00000   -1.20000
AFIX   0
C11   1    0.544301    0.030415    0.425750    11.00000    0.01987    0.02021 =
         0.02264   -0.00340    0.00069    0.00294
AFIX  43
H11   2    0.548789    0.144444    0.485930    11.00000   -1.20000
AFIX   0
C9    1    0.584456   -0.123636    0.238970    11.00000    0.01920    0.01853 =
         0.01849    0.00035   -0.00230    0.00150
HKLF    4




REM  jmwtf57 in Pca2(1)
REM R1 =  0.0237 for    2061 Fo > 4sig(Fo)  and  0.0254 for all    2171 data
REM    163 parameters refined using      1 restraints

END

WGHT      0.0405      0.0000

REM Highest difference peak  0.250,  deepest hole -0.545,  1-sigma level  0.071
Q1    1   0.6745  0.1630  0.0165  11.00000  0.05    0.25
Q2    1   0.8226  0.1501  0.0183  11.00000  0.05    0.23
Q3    1   0.7879  0.3339  0.0829  11.00000  0.05    0.22
Q4    1   0.6380 -0.3348  0.3365  11.00000  0.05    0.22
Q5    1   0.8114  0.4593  0.0979  11.00000  0.05    0.22
Q6    1   0.7989  0.0058  0.0516  11.00000  0.05    0.21
Q7    1   0.7321 -0.2602  0.0171  11.00000  0.05    0.20
Q8    1   0.8286  0.8409  0.0161  11.00000  0.05    0.20
Q9    1   0.6513  0.3390  0.0166  11.00000  0.05    0.20
Q10   1   0.7142  0.6557  0.4012  11.00000  0.05    0.20
Q11   1   0.7636  0.6320  0.2675  11.00000  0.05    0.19
Q12   1   0.7114  0.8020  0.4368  11.00000  0.05    0.19
Q13   1   0.7947  1.2173  0.3549  11.00000  0.05    0.19
Q14   1   0.5871 -0.0421  0.2695  11.00000  0.05    0.19
Q15   1   0.7995  0.8351  0.1071  11.00000  0.05    0.18
Q16   1   0.6947 -0.3268  0.1138  11.00000  0.05    0.18
Q17   1   0.6912  0.1390 -0.0722  11.00000  0.05    0.18
Q18   1   0.6975  0.1557  0.1834  11.00000  0.05    0.18
Q19   1   0.6506  0.3113  0.3847  11.00000  0.05    0.18
Q20   1   0.6705 -0.1746  0.0170  11.00000  0.05    0.18
;
_shelx_res_checksum   20285

_shelx_hkl_file
;
   0   0 -14 90536.4 2602.59   9
   0   0 -13 145.804 225.189   4
   0   0 -12 122275. 3750.85  14
   0   0 -12 127764. 3584.16   4
   0   0 -11 202.439 272.780   4
   0   0 -11-159.277 200.951   5
   0   0 -10 416922. 7118.44   4
   0   0 -10 401005. 7113.35   5
   0   0  -9 92.2195 164.446   4
   0   0   1 66.8396 40.7169  19
   0   0   2 160033. 1702.57  19
   0   0   3 70.5454 107.922  19
   0   0   4 626131. 4931.59  19
   0   0   5 13.2551 154.550  19
   0   0   6 230667. 3817.50  19
   0   0   7 74.4582 159.354  19
   0   0   8 249379. 4790.05  19
   0   0   9-84.5283 166.485  19
   0  -1 -14 12830.7 988.449   9
   0   1 -14 11330.0 817.350   9
   0  -1 -13-175.291 279.132   9
   0   1 -13 469.153 278.831   5
   0   1 -12 37117.3 1885.06   4
   0  -1 -12 38239.5 1874.97   4
   0   1 -12 38096.7 2187.67   5
   0  -1 -11-604.975 348.139  14
   0  -1 -11 28.3870 213.768   4
   0   1 -11-272.971 276.752   4
   0   1 -11 148.917 231.332   5
   0   1 -10 101088. 3417.34   4
   0  -1 -10 107907. 3551.87   4
   0  -1 -10 108251. 3869.88  14
   0   1 -10 109817. 3871.41   5
   0  -1  -9-195.650 275.645  13
   0  -1  -9 106.693 137.419   4
   0   1  -9-221.136 256.267   4
   0  -1  -3 3.83055 193.491  13
   0  -1  -2 286182. 3339.20  13
   0  -1  -2 286881. 3057.27  17
   0  -1  -2 285101. 3045.69  16
   0  -1  -1 111.477 149.775  16
   0  -1  -1 17.5648 192.013  13
   0  -1  -1 9.15057 115.836  17
   0  -1   0 365586. 3281.79  16
   0  -1   0 342586. 2013.01  19
   0  -1   1-6.75218 78.7081  19
   0  -1   2 279771. 2669.11  19
   0  -1   3 46.8722 127.026  19
   0   1   3 28.2185 89.5691  19
   0  -1   4 57394.7 1620.33  19
   0   1   4 59755.7 1418.58  19
   0  -1   5-35.1862 187.438  19
   0   1   5 139.518 137.166  19
   0   1   6 150143. 2892.28  19
   0  -1   6 137021. 3154.44  19
   0   1   7-142.018 143.647  19
   0  -1   7 140.440 192.093  19
   0   1   8 213504. 4156.91  19
   0  -1   8 197224. 4495.32  19
   0  -1   9-418.558 391.361   6
   0  -1   9 74.4550 174.814  19
   0  -1  10 116730. 4136.24   6
   0  -1  11-199.464 242.021   6
   0  -2 -14 10261.0 771.442   9
   0   2 -13 43.6714 202.727   5
   0  -2 -13-13.3386 253.439   9
   0   2 -12 24446.1 1714.51   5
   0  -2 -12 21961.0 1728.26   9
   0   2 -11 449.468 320.991   5
   0  -2 -11-348.391 209.429   4
   0  -2 -11 244.402 437.986   9
   0  -2 -10 10887.9 1033.17   4
   0   2 -10 11839.4 1089.10   4
   0  -2 -10 12407.1 1449.35   9
   0   2  -9-181.108 156.843   4
   0  -2  -9-466.778 402.428   9
   0  -2  -9-699.224 364.073  13
   0  -2  -9-584.403 303.470  14
   0  -2  -8 57883.4 3111.25  13
   0  -2  -7 82.5908 205.127  13
   0  -2  -6 90064.0 3321.54  13
   0  -2  -5 4.39888 256.310  13
   0  -2  -4 288867. 5122.11  13
   0  -2  -3 4.17617 153.990  16
   0  -2  -3 3.25764 166.051  17
   0  -2  -3 208.431 258.602  13
   0  -2  -2 7688.92 726.447  13
   0  -2  -2 6525.32 675.283  16
   0  -2  -2 7273.11 637.229  17
   0  -2  -1-35.0491 146.503  17
   0  -2  -1 115.185 196.363  16
   0  -2   0 317361. 4753.86  16
   0  -2   0 373891. 3436.13  19
   0  -2   1 37.3515 86.7103  19
   0  -2   2 6998.68 510.113  19
   0  -2   3 71.7141 137.972  19
   0   2   3 10.1794 66.5831  19
   0  -2   4 281079. 3961.96  19
   0  -2   5 288.706 202.375  19
   0  -2   6 96404.3 2810.14  19
   0  -2   7 5.10987 179.545  19
   0  -2   8 61423.1 2614.76  19
   0  -2   8 62029.0 3216.95   6
   0  -2   9-454.290 350.688   6
   0  -2  10 14822.9 1580.46   6
   0  -2  11 113.882 245.631   6
   0  -2  12 19729.5 1523.68   6
   0   3 -13-24.3832 131.839   5
   0  -3 -13 320.211 248.788   9
   0  -3 -12 76331.7 2846.97   9
   0   3 -12 77042.4 2604.48   5
   0  -3 -11-141.043 422.393   9
   0   3 -11 63.5758 228.205   5
   0  -3 -10 115215. 4337.48   9
   0  -3 -10 121520. 3419.43   2
   0  -3  -9-67.0857 328.534   2
   0  -3  -9-112.012 256.394   9
   0  -3  -8 226580. 6167.44   9
   0  -3  -8 212695. 5059.20   2
   0  -3  -8 214208. 5066.99  15
   0  -3  -7-3.95299 57.4095  15
   0   3  -7-398.149 333.518   8
   0  -3  -7 363.625 329.727   9
   0  -3  -7-265.054 210.515  13
   0  -3  -6 197195. 5470.05   9
   0  -3  -6 195481. 5206.73  13
   0  -3  -5 126.355 216.961  13
   0  -3  -4 292103. 5492.03  13
   0  -3  -4 267824. 5177.41  17
   0  -3  -3-121.628 222.968  16
   0  -3  -3 172.534 200.379  17
   0  -3  -2 475703. 6899.08  16
   0  -3  -2 436668. 6003.51  17
   0  -3  -1-125.757 260.527  16
   0  -3  -1-23.6026 147.027  17
   0  -3   0 344458. 6059.38  16
   0  -3   0 404667. 5717.38  17
   0  -3   1-227.930 263.945  16
   0  -3   1 2.45413 82.1459  19
   0  -3   2 487712. 5228.05  19
   0  -3   2 465671. 6983.59  16
   0  -3   3 1211.31 294.870  19
   0  -3   4 266612. 4341.75  19
   0  -3   5-33.3686 177.479  19
   0  -3   6 199931. 5821.52  10
   0  -3   6 209553. 5863.43   6
   0  -3   7 81.9613 149.270  10
   0  -3   7 98.6193 173.668   6
   0  -3   7 151.567 253.756  19
   0  -3   8 214365. 6135.89   6
   0  -3   9-80.2684 323.570   6
   0  -3  10 107855. 4052.54   6
   0  -3  11-2.63773 172.643   6
   0  -3  12 79284.7 2742.53   6
   0  -4 -11-156.728 244.627   9
   0   4 -11 376.969 183.571   5
   0  -4 -10 79637.5 3161.63   9
   0   4 -10 73793.5 2576.88   5
   0  -4  -9-2.67128 168.301   2
   0  -4  -9 247.227 400.302   9
   0  -4  -8 98935.5 4154.03   9
   0  -4  -8 102126. 3228.94   2
   0  -4  -7 147.847 246.106   2
   0  -4  -7 1.37566 195.005  15
   0   4  -7 36.4003 241.620   8
   0  -4  -6 53328.4 2562.79   2
   0   4  -6 52997.7 2818.31   8
   0  -4  -6 52220.7 3153.07   9
   0  -4  -6 54432.0 2734.71  15
   0  -4  -5-289.981 333.928   9
   0  -4  -5 320.052 311.250   2
   0  -4  -5 182.166 232.316  15
   0   4  -5-477.814 298.256   8
   0  -4  -4 37144.1 2163.74   2
   0  -4  -4 36902.8 2224.95  15
   0  -4  -4 38355.3 2710.45   9
   0   4  -4 35942.7 2230.34   8
   0  -4  -3 648.824 345.247   2
   0  -4  -3 177.089 227.095  15
   0  -4  -2 111594. 3703.43  15
   0  -4  -2 108348. 3628.20   2
   0  -4  -1 268.691 244.159  16
   0  -4   0 96034.6 3599.26  16
   0  -4   1 349.979 348.947  16
   0  -4   2 106180. 4040.14  16
   0  -4   3-151.351 319.428  16
   0  -4   3 57.4623 155.981  10
   0  -4   4 33883.3 2428.87  10
   0  -4   4 32800.3 2353.83   9
   0  -4   4 35236.0 2498.89  16
   0  -4   5-11.2550 101.806   6
   0  -4   5-314.053 329.236  10
   0  -4   6 47251.3 2741.12   6
   0  -4   6 43577.9 2900.12  10
   0  -4   7-53.9833 245.610   6
   0  -4   7-55.4270 308.429  10
   0  -4   8 89406.8 3678.19   6
   0  -4   9 151.191 262.504   6
   0  -4  10 72933.9 2806.94   6
   0  -4  11-116.201 192.406   6
   0   5  -9 250.626 127.132   5
   0  -5  -9 172.349 193.216   9
   0  -5  -9-88.1342 139.373   1
   0  -5  -8 2889.58 417.490   2
   0  -5  -8 3714.20 680.826   9
   0   5  -8 3725.09 495.973   5
   0  -5  -7-16.1563 167.500   2
   0  -5  -7 6.58896 310.229   9
   0  -5  -6 1101.14 531.389   9
   0  -5  -6 1249.86 417.040   2
   0  -5  -5-1.15890 313.586   2
   0  -5  -5-205.371 349.697   9
   0  -5  -4 22908.0 1924.14   9
   0  -5  -4 21625.8 1617.96   2
   0  -5  -3-326.510 334.755   9
   0  -5  -3 112.872 370.556   2
   0  -5  -2 19917.6 1838.33   9
   0  -5  -1 672.026 346.948   9
   0  -5  -1-135.864 127.180  12
   0  -5   0 18315.1 1494.85  12
   0  -5   0 18588.8 1789.71   9
   0  -5   1-3.49446 68.1871   9
   0  -5   1-159.631 236.718  12
   0  -5   2 19891.0 1760.78  10
   0  -5   2 17705.7 1678.04   9
   0  -5   2 18549.8 1527.81  12
   0  -5   3-365.929 313.870  10
   0  -5   4 22828.4 1952.27  10
   0  -5   5 114.494 293.736  10
   0  -5   6 1713.43 447.864  12
   0  -5   7-260.271 225.174   6
   0  -5   7 220.207 220.165  12
   0  -5   8 3924.40 575.758   6
   0  -5   8 4164.00 544.645  12
   0  -6  -6 53651.5 1757.88   1
   0  -6  -5 64.6672 159.166   1
   0  -6  -4 80359.6 2556.22   1
   0  -6  -3 202.056 235.519   1
   0  -6  -2 130652. 3428.95   1
   0  -6  -1-148.258 208.327   1
   0  -6   0 5472.71 694.154  12
   0  -6   1-221.172 209.173  12
   0  -6   2 113240. 3125.69  12
   0  -6   3-132.121 212.483  12
   0  -6   4 73641.5 2331.35  12
   0  -6   5 127.452 177.283  12
   0  -6   6 54289.1 1644.72  12
   1   0 -14 98.3414 192.179   9
  -1   0 -14 110.159 254.972   9
  -1   0 -13 205.369 207.560   4
  -1   0 -13 269.475 210.085  14
   1   0 -12-220.104 267.013   4
  -1   0 -12 340.561 296.285  14
   1   0 -12 91.2454 157.837   5
  -1   0 -12 219.310 271.516   4
  -1   0 -11 749.972 489.068  14
  -1   0 -11-179.996 272.254   4
   1   0 -11 37.5924 223.604   4
   1   0 -11 270.622 245.526   5
   1   0 -10-301.249 284.776   4
  -1   0 -10-92.2338 267.500   4
  -1   0  -9-84.0949 100.440   4
   1   0  -9 192.464 210.722   4
  -1   0   1 41.7424 39.6849  18
   1   0   1 110.670 42.3122  19
  -1   0   2 435.918 134.053  19
   1   0   2 609.815 119.863  19
   1   0   3 15.3274 88.2839  19
  -1   0   3-43.5540 117.430  19
  -1   0   4 57.2552 128.422  19
   1   0   4 83.2807 106.431  19
   1   0   5 9.22036 116.522  19
  -1   0   5 37.4289 147.516  19
   1   0   6 254.978 170.060  19
  -1   0   6 116.545 184.172  19
   1   0   7 215.465 176.729  19
  -1   0   7 104.702 149.877  19
  -1   0   8 794.311 333.908  19
   1   0   8 150.528 217.584  19
  -1   0   9 177.980 207.025  19
   1   0   9-102.511 145.356  19
   1  -1 -14 57857.0 1980.87   9
  -1  -1 -14 58357.1 2132.36   9
  -1  -1 -13 3055.84 497.377   4
   1  -1 -13 4075.35 693.551   9
  -1   1 -13 2385.61 490.192  14
   1   1 -13 3661.52 616.186   5
  -1   1 -13 3330.34 589.391   5
  -1  -1 -13 3437.36 681.858   9
  -1   1 -12 90646.5 3345.57   5
   1  -1 -12 89905.5 2826.08   4
   1   1 -12 92411.6 3342.41   5
  -1   1 -12 88871.5 2913.77   4
   1   1 -12 90748.5 2923.88   4
  -1  -1 -12 87436.2 2861.10   4
  -1  -1 -12 94092.6 3228.10  14
   1  -1 -12 88302.0 3393.60   9
  -1  -1 -11 4340.14 727.358   4
  -1  -1 -11 5091.93 869.880  14
  -1   1 -11 4637.13 830.699   5
   1   1 -11 4861.76 821.071   5
   1  -1 -11 4493.31 699.491   4
   1   1 -11 4959.90 741.995   4
  -1   1 -11 5178.95 779.051   4
  -1   1 -10 273483. 5656.64   4
   1  -1 -10 279454. 5585.65   4
  -1  -1 -10 277636. 6472.76  14
   1   1 -10 273318. 6077.33   5
  -1  -1 -10 278374. 5871.39   4
   1   1 -10 279918. 5568.65   4
  -1   1 -10 283677. 6262.60   5
   1  -1  -9 4188.74 699.936   4
  -1   1  -9 4830.71 778.043   4
  -1  -1  -9 4413.92 733.772   4
   1   1  -9 4811.24 771.798   5
  -1  -1  -9 4421.97 885.273  13
   1  -1  -9 4973.32 939.818  13
  -1  -1  -9 3720.30 817.038  14
   1   1  -9 4232.87 684.043   4
  -1  -1  -8 148583. 4533.90  13
   1  -1  -3 10870.4 758.833  17
  -1  -1  -3 10919.4 297.039  18
  -1  -1  -3 11714.2 778.393  13
  -1  -1  -2 341711. 3202.85  17
   1  -1  -2 348649. 3620.10  17
  -1  -1  -2 342777. 3688.32  16
   1  -1  -1 3724.22 368.452  17
  -1  -1  -1 4002.23 281.238  17
   1  -1  -1 4202.89 376.287  13
   1  -1  -1 3936.26 312.906  16
   1  -1   0 318503. 2405.25  19
  -1  -1   0 324849. 1607.35  19
  -1  -1   1 3649.88 259.937  19
  -1   1   1 3972.90 193.717  18
   1  -1   1 3512.55 261.825  19
  -1  -1   2 327100. 2920.65  19
   1   1   2 330905. 1806.75  19
   1   1   3 10462.6 447.813  19
  -1  -1   3 10913.0 635.095  19
   1  -1   3 11089.1 621.153  19
  -1   1   3 11452.0 582.786  19
   1  -1   4 198113. 2947.47  19
   1   1   4 193064. 2318.89  19
  -1   1   4 195695. 2720.31  19
  -1  -1   4 198737. 3094.45  19
  -1   1   5 60741.6 1735.19  19
  -1  -1   5 61858.7 1942.50  19
   1  -1   5 60696.6 1842.35  19
   1   1   5 62307.5 1547.77  19
   1  -1   6 360345. 4992.53  19
  -1  -1   6 349760. 5130.80  19
  -1   1   6 359850. 4706.80  19
  -1   1   7 11903.3 945.982  19
   1   1   7 12384.9 880.338  19
  -1  -1   7 11445.7 1027.91  19
   1  -1   7 11017.4 980.605  19
   1  -1   8 137522. 3717.35  19
  -1  -1   8 141095. 3848.23  19
  -1   1   8 144423. 3525.65  19
   1  -1   9 4548.96 711.732  19
  -1  -1   9 5601.19 817.022  19
   1  -1   9 4399.51 850.990   6
  -1  -1   9 4626.66 845.303   6
   1  -1  10 270675. 6317.80   6
  -1  -1  10 278603. 6385.15   6
  -1  -1  11 4514.28 788.586   6
   1  -1  11 5065.37 824.097   6
   1  -2 -14 73612.2 1967.16   9
  -1  -2 -14 71301.6 2025.74   9
  -1  -2 -13 3859.21 660.893   9
  -1   2 -13 3197.83 539.030   5
  -1   2 -13 3423.98 504.412  14
   1   2 -13 4634.25 654.815   5
   1  -2 -13 4466.99 674.434   9
  -1  -2 -12 89809.7 3442.48   9
  -1   2 -12 94523.9 3392.04   5
  -1  -2 -12 89518.9 2451.27   4
   1   2 -12 88905.1 3164.82   5
   1  -2 -12 90520.2 3380.66   9
  -1  -2 -11 525.648 236.343   4
  -1   2 -11 120.562 302.901   5
   1  -2 -11 222.146 193.215   4
  -1   2 -11 252.578 203.458   4
  -1  -2 -11 195.583 368.250   9
   1  -2 -11 454.640 444.955   9
   1   2 -11 390.442 338.966   5
  -1  -2 -10 112448. 3889.64  14
   1   2 -10 112849. 3351.27   4
  -1   2 -10 107402. 3232.03   4
   1  -2 -10 112996. 4230.69   9
  -1  -2 -10 109412. 3323.73   4
  -1  -2 -10 107340. 4201.82   9
   1   2 -10 100449. 3717.72   5
   1  -2 -10 115082. 3193.55   4
  -1   2  -9 2421.50 518.672   4
   1  -2  -9 1221.72 522.840   9
   1  -2  -9 1443.41 586.561  13
   1   2  -9 2123.65 507.889   4
  -1  -2  -9 2267.85 606.936  14
  -1  -2  -9 1410.98 385.038   4
  -1   2  -8 207113. 5658.17   8
  -1  -2  -8 196005. 5080.72  14
   1  -2  -8 192099. 5218.24   9
  -1  -2  -8 200078. 5855.19  13
   1  -2  -8 195764. 5606.53  13
  -1  -2  -7 5649.41 930.683  13
   1  -2  -7 5546.48 904.236  13
   1  -2  -6 301018. 5911.56  13
  -1  -2  -6 306566. 6220.45  13
   1  -2  -5 29201.7 1707.17  13
  -1  -2  -5 28587.7 1789.47  13
  -1  -2  -4 318236. 5566.21  13
   1  -2  -4 324353. 5222.56  13
  -1  -2  -3 19975.1 1278.55  16
  -1  -2  -3 19638.4 1062.27  17
   1  -2  -3 19284.4 1180.28  17
   1  -2  -3 21469.3 1250.52  13
  -1  -2  -3 21883.8 1374.68  13
   1  -2  -2 463735. 5347.54  17
  -1  -2  -2 433700. 5815.24  16
  -1  -2  -2 425732. 4431.68  17
   1  -2  -2 450591. 4840.28  16
  -1  -2  -2 470332. 5752.58  13
   1  -2  -2 465280. 5128.01  13
   1  -2  -1 15928.4 998.426  17
   1  -2  -1 15826.0 945.276  16
  -1  -2  -1 14485.9 768.781  17
  -1  -2  -1 15978.7 987.633  13
  -1  -2   0 470259. 3420.73  19
  -1  -2   0 479008. 5980.28  16
  -1  -2   1 16396.9 649.733  19
   1  -2   1 15128.5 707.918  19
   1  -2   2 438236. 4025.25  19
  -1  -2   2 436058. 3893.83  19
   1  -2   3 19778.6 965.131  19
  -1  -2   3 19810.7 950.332  19
  -1   2   4 365123. 3765.69  19
  -1  -2   4 351500. 4413.22  19
   1  -2   4 354035. 4421.93  19
   1  -2   5 28131.6 1382.52  19
  -1  -2   5 30213.9 1438.95  19
   1  -2   6 276637. 4723.90  19
  -1  -2   6 290438. 4886.77  19
   1  -2   7 5630.95 747.031  19
  -1  -2   7 6113.70 783.020  19
   1  -2   8 200042. 5783.65   6
  -1  -2   8 222761. 6069.06   6
  -1  -2   8 214115. 4925.76  19
   1  -2   8 199428. 4717.29  19
  -1  -2   9 1844.34 635.678   6
   1  -2   9 2247.26 660.897   6
   1  -2  10 107085. 4205.61   6
  -1  -2  10 102173. 4075.91   6
  -1  -2  11 245.100 272.621   6
   1  -2  11 416.323 327.238   6
  -1  -2  12 84469.3 3107.80   6
   1  -2  12 85773.6 3186.38   6
   1  -3 -13 720.654 258.332   9
   1   3 -13 875.588 254.798   5
  -1   3 -13 702.471 215.837   5
  -1  -3 -13 918.859 285.848   9
   1   3 -12 10006.1 933.942   5
   1  -3 -12 9919.72 1046.01   9
  -1  -3 -12 9045.09 1010.60   9
  -1   3 -12 10326.1 997.327   5
   1  -3 -11-346.974 384.585   9
  -1   3 -11 77.5953 284.027   5
   1   3 -11 274.499 244.099   5
  -1  -3 -11-577.387 427.317   9
  -1  -3 -11 42.1116 220.581   2
   1   3 -10 2394.79 606.510   5
   1  -3 -10 2960.43 804.513   9
  -1  -3 -10 1699.26 508.067   2
  -1  -3 -10 2556.02 769.860   9
  -1  -3  -9 3750.16 871.803   9
   1  -3  -9 4356.05 941.617   9
   1  -3  -9 3885.59 661.376  15
  -1  -3  -9 5191.48 823.125   2
  -1  -3  -8 19176.1 1603.85   2
  -1   3  -8 19186.9 1819.98   8
  -1  -3  -8 20633.7 1886.05   9
   1  -3  -8 18972.9 1548.02  15
   1  -3  -8 20003.1 1506.00   2
   1  -3  -8 20757.0 1860.75   9
  -1  -3  -8 19485.1 1528.75  15
   1  -3  -7 4423.44 793.733  13
   1  -3  -7 4385.66 766.551  15
  -1  -3  -7 4540.41 871.055   9
  -1   3  -7 4051.03 823.516   8
   1  -3  -7 4019.10 698.247   2
  -1  -3  -7 3592.69 795.904  13
  -1  -3  -7 3854.24 710.131  15
   1  -3  -7 5342.28 953.812   9
   1   3  -7 3950.57 806.793   8
  -1   3  -6 9488.08 1191.92   8
   1  -3  -6 8880.51 1080.61  13
   1  -3  -6 10849.1 1290.25   9
  -1  -3  -6 10436.1 1250.04  13
   1  -3  -5 6441.06 847.703  13
  -1  -3  -5 5129.64 846.862  13
  -1  -3  -4 3525.11 653.032  13
   1  -3  -4 2438.98 565.499  17
   1  -3  -4 3295.09 585.744  13
  -1  -3  -3 34681.7 1668.08  17
   1  -3  -3 35479.0 1916.69  17
  -1  -3  -3 36878.4 2105.03  16
  -1  -3  -3 38135.0 1957.83  13
   1  -3  -3 36794.6 1764.85  16
   1  -3  -2 69607.2 2416.00  16
   1  -3  -2 66639.8 2508.50  17
  -1  -3  -2 70400.5 2878.70  16
  -1  -3  -2 65888.4 2159.04  17
   1  -3  -1 8515.75 895.638  17
   1  -3  -1 7423.36 808.286  16
  -1  -3  -1 6617.71 662.083  17
  -1  -3  -1 6262.54 868.902  16
  -1  -3   0 43428.8 1691.34  17
   1  -3   0 41797.4 2003.54  16
  -1  -3   0 38995.1 2131.94  16
   1  -3   1 6953.14 869.017  16
   1  -3   1 6379.73 658.227  19
  -1  -3   1 6817.45 914.217  16
  -1  -3   2 70248.1 2765.10  16
  -1  -3   2 69467.4 1913.77  19
   1  -3   2 66419.8 2594.89  16
   1  -3   2 68624.1 2077.18  19
  -1  -3   3 36831.3 1475.42  19
   1  -3   3 37093.0 1572.80  19
   1  -3   4 2340.50 447.964  19
  -1  -3   4 2437.15 430.579  19
  -1  -3   5 5394.65 671.976  19
   1  -3   5 6116.89 729.291  19
  -1  -3   6 9375.60 952.573  19
  -1  -3   6 11087.6 1343.13   6
  -1  -3   6 10432.0 1370.84  10
   1  -3   6 9306.09 1308.53  10
   1  -3   6 10824.3 1369.81   6
   1  -3   6 8822.13 938.836  19
   1  -3   7 4989.53 932.050   6
  -1  -3   7 4640.16 918.809   6
   1  -3   7 4416.73 703.380  19
  -1  -3   7 5163.31 1003.51  10
  -1  -3   7 4762.58 722.993  19
   1  -3   7 4131.36 910.221  10
   1  -3   8 19225.0 1874.01   6
  -1  -3   8 20669.1 1912.56   6
   1  -3   9 3025.10 752.070   6
  -1  -3   9 3879.08 837.978   6
  -1  -3  10 2520.99 699.514   6
   1  -3  10 2308.22 649.964   6
   1  -3  11-12.2619 199.821   6
  -1  -3  11 16.8074 167.125   6
  -1  -3  12 9740.32 965.591   6
   1  -3  12 10455.4 1029.10   6
  -1  -4 -11 1531.78 397.961   9
  -1   4 -11 1712.69 370.306   5
   1   4 -11 1285.97 297.001   5
   1  -4 -11 1367.51 434.666   9
  -1  -4 -10 92394.9 2443.94   2
   1  -4 -10 96520.7 3493.40   9
   1   4 -10 86519.1 2710.16   5
  -1  -4 -10 90558.8 3320.08   9
  -1   4 -10 90066.5 2901.44   5
   1   4  -9 2708.70 555.107   5
   1  -4  -9 2884.64 754.578   9
  -1  -4  -9 3451.78 776.420   9
  -1  -4  -9 3079.31 570.981   2
  -1  -4  -8 64809.2 3308.51   9
   1  -4  -8 68469.1 2524.83   2
   1  -4  -8 66724.3 3428.69   9
  -1  -4  -8 70549.1 2807.18   2
   1  -4  -8 64150.5 2756.78  15
  -1  -4  -7 5857.20 923.399   2
   1  -4  -7 5654.24 1075.55   9
  -1   4  -7 5455.52 961.123   8
  -1  -4  -7 4596.89 923.274   9
   1  -4  -7 5732.52 867.022  15
   1  -4  -7 6171.77 830.930   2
  -1  -4  -6 95504.0 3602.12  15
   1   4  -6 98806.9 3796.45   8
   1  -4  -6 101479. 3726.42  15
  -1  -4  -6 99635.6 3610.41   2
   1  -4  -6 97610.7 3332.85   2
   1  -4  -6 97894.3 4290.61   9
  -1  -4  -6 98745.0 4240.48   9
  -1   4  -6 95446.2 3835.34   8
   1   4  -5 2633.68 648.451   8
  -1  -4  -5 1349.45 693.590   3
   1  -4  -5 2101.27 739.624   9
   1  -4  -5 1232.75 410.271   2
   1  -4  -5 2783.16 625.613  15
  -1  -4  -5 2627.37 634.014  15
  -1  -4  -5 1077.34 537.646   9
  -1  -4  -5 2398.34 629.289   2
  -1   4  -5 1952.62 576.211   8
  -1  -4  -4 101483. 3677.09  15
   1  -4  -4 101411. 3461.10   2
   1  -4  -4 102323. 4473.19   9
  -1  -4  -4 101559. 4341.89   9
  -1   4  -4 100758. 3756.76   8
   1  -4  -4 105145. 3733.71  15
  -1  -4  -4 99339.9 3639.80   2
  -1  -4  -3 9822.99 1233.10  16
  -1  -4  -3 10523.3 1184.98   2
   1  -4  -3 10183.3 1130.82   2
  -1  -4  -3 10313.4 1164.48  15
   1  -4  -3 8771.55 1295.75   9
  -1  -4  -3 11204.1 1404.84   9
   1  -4  -3 10473.8 1173.09  15
  -1  -4  -2 97343.2 3801.81  16
   1  -4  -2 101845. 3546.57  15
   1  -4  -2 98192.2 4255.97   9
  -1  -4  -2 103211. 3586.31  15
   1  -4  -2 97527.5 3391.58   2
  -1  -4  -2 100197. 3561.75   2
  -1  -4  -1 6957.88 1044.31  16
   1  -4  -1 4979.61 801.975  17
  -1  -4   0 104002. 3939.41  16
   1  -4   0 107226. 3612.10  17
  -1  -4   1 6030.48 1016.18  16
   1  -4   1 6548.86 920.821  17
   1  -4   2 100233. 3801.85  16
  -1  -4   2 99808.5 4035.24  16
   1  -4   2 102443. 3925.80  10
  -1  -4   3 10282.7 1339.76  16
   1  -4   3 10425.6 1317.76  16
  -1  -4   3 10070.3 1290.82  10
   1  -4   3 7172.14 1167.21   9
   1  -4   3 10784.7 1346.27  10
   1  -4   4 92540.3 3960.96  16
  -1  -4   4 96499.0 4180.77  16
   1  -4   4 91916.7 4206.17   9
  -1  -4   4 96320.7 4057.22  10
   1  -4   4 92584.9 4009.02  10
   1  -4   5 2747.16 697.343   6
  -1  -4   5 1672.96 509.620   6
   1  -4   5 1587.03 564.225  10
  -1  -4   5 2162.44 681.961  10
  -1  -4   6 95123.9 3871.50   6
   1  -4   6 97052.5 4356.40  10
  -1  -4   6 97222.4 4304.43  10
   1  -4   6 95176.6 3935.14   6
   1  -4   7 5669.56 997.285   6
  -1  -4   7 6522.49 1037.70   6
   1  -4   7 6203.03 1181.40  10
  -1  -4   8 59170.1 2959.56   6
   1  -4   8 59539.6 3034.38   6
  -1  -4   9 2506.15 614.378   6
   1  -4   9 2381.87 615.299   6
  -1  -4   9 3076.08 491.168  12
  -1  -4  10 87512.7 3041.90   6
   1  -4  10 84911.7 3075.99   6
  -1  -4  11 1505.61 371.607   6
   1  -4  11 1557.33 381.009   6
   1  -5  -9 6481.08 606.553   1
   1   5  -9 5555.57 455.697   5
  -1   5  -9 6502.25 567.209   5
   1  -5  -9 6264.89 710.010   9
  -1  -5  -8 99657.4 3002.20   9
  -1  -5  -8 109117. 2652.07   2
   1   5  -8 104550. 2460.33   5
   1  -5  -8 108323. 3390.11   9
  -1  -5  -7 100.828 212.051   2
  -1  -5  -7 1439.00 453.104   9
   1  -5  -7 909.751 481.358   9
   1  -5  -7 275.749 206.024   2
   1   5  -7 1000.87 285.350   5
  -1  -5  -6 94058.9 3519.11   9
  -1  -5  -6 95716.3 3131.26   2
   1  -5  -6 99837.0 3837.11   9
   1  -5  -6 95133.0 2901.50   2
  -1  -5  -5-28.0539 238.107   2
   1  -5  -5 187.793 341.827   9
   1  -5  -5 289.350 275.191   2
  -1   5  -5 198.696 237.488   8
  -1  -5  -5 267.554 321.347   9
   1  -5  -4 105441. 4260.20   9
   1  -5  -4 100930. 3368.43   2
  -1  -5  -4 103347. 3590.86   2
  -1  -5  -4 106131. 4008.97   9
  -1  -5  -3-411.101 409.806   2
  -1  -5  -3 730.186 425.358   9
   1  -5  -3 161.383 339.338   2
   1  -5  -3 280.767 348.267   9
  -1  -5  -2 254733. 5472.75  12
  -1  -5  -2 242618. 5787.88   2
   1  -5  -2 248420. 6655.62   9
  -1  -5  -2 251440. 6194.17   9
   1  -5  -1 38282.5 2629.12   9
   1  -5  -1 36120.5 2043.25  12
  -1  -5  -1 38576.4 2160.53  12
   1  -5   0 81383.9 3849.81   9
   1  -5   0 83589.8 3143.97  12
  -1  -5   0 81957.0 3163.51  12
   1  -5   0 85080.9 3468.97  10
   1  -5   1 37699.9 2141.33  12
  -1  -5   1 35939.7 2112.06  12
  -1  -5   1 38326.0 2179.89   1
   1  -5   1 39432.9 2467.46  10
   1  -5   1 35879.5 2534.09   9
  -1  -5   2 245041. 5513.81  12
   1  -5   2 256707. 6403.74  10
   1  -5   2 249154. 6593.61   9
  -1  -5   2 256131. 6169.14  10
  -1  -5   3 209.471 290.825  12
  -1  -5   3 112.265 222.939  10
   1  -5   3 207.647 304.683   9
   1  -5   3 278.466 289.433  10
  -1  -5   4 103388. 3506.73  12
  -1  -5   4 106108. 4145.44  10
   1  -5   4 103237. 4177.63  10
  -1  -5   5 206.106 285.688  12
   1  -5   5 834.689 437.702  10
  -1  -5   6 94964.9 3096.17  12
   1  -5   6 98306.1 3964.66  10
   1  -5   7 492.947 267.036  12
   1  -5   7 506.154 240.994   6
  -1  -5   7 597.655 272.348  12
  -1  -5   7 712.989 322.553   6
  -1  -5   8 116985. 2973.60   6
   1  -5   8 111508. 2772.82  12
   1  -5   8 115020. 2993.13   6
  -1  -5   8 112513. 2680.59  12
   1  -5   9 6425.65 520.595  12
   1  -5   9 6619.24 637.236   6
  -1  -6  -6 3667.87 478.042   1
   1  -6  -6 3573.33 470.423   1
  -1  -6  -5 475.554 224.314   1
   1  -6  -5 430.330 225.538   1
   1  -6  -4 16952.3 1172.42   1
  -1  -6  -4 16829.8 1183.21   1
   1  -6  -3 1626.32 405.392   1
  -1  -6  -3 772.704 297.533   1
  -1  -6  -2 4043.40 628.017   1
   1  -6  -2 4057.78 626.194   1
  -1  -6  -1 16548.0 1237.13   1
   1  -6  -1 16547.7 1196.94   1
   1  -6   0 10651.1 924.643  12
  -1  -6   0 10520.0 958.829  12
  -1  -6   0 10781.2 975.342   1
   1  -6   1 15473.3 1155.28  12
  -1  -6   1 15954.7 1201.61  12
   1  -6   2 4667.26 652.895  12
  -1  -6   2 3549.71 593.805  12
   1  -6   3 1261.78 360.452  12
  -1  -6   3 1297.48 368.159  12
  -1  -6   4 16884.4 1131.86  12
   1  -6   4 16098.7 1095.33  12
   1  -6   5 590.117 245.560  12
  -1  -6   5 674.691 256.048  12
  -1  -6   6 3554.05 425.861  12
   1  -6   6 3926.94 454.397  12
  -2   0 -14 107518. 3017.05   9
   2   0 -14 101197. 2345.59   9
   2   0 -13 1039.20 350.420   9
  -2   0 -13 1449.50 394.818  14
  -2   0 -13 996.410 335.160   4
   2   0 -13 1285.10 386.762   5
   2   0 -12 71839.6 2654.09   4
  -2   0 -12 65756.8 3068.49  14
   2   0 -12 67878.9 2808.59   5
  -2   0 -12 69549.8 2741.79   4
   2   0 -11 102201. 3346.43   4
  -2   0 -11 102579. 3569.36   4
   2   0 -11 104393. 3655.82   5
   2   0 -10 251753. 5339.86   4
   2   0 -10 241744. 5565.86   5
  -2   0 -10 233947. 5558.92   4
   2   0  -9 43764.9 2298.21   5
   2   0  -9 47759.5 2284.63   4
  -2   0  -9 44708.0 2404.43   4
   2   0  -1 132408. 1497.37  17
   2   0   1 131808. 1171.22  19
  -2   0   1 133152. 1296.94  18
   2   0   2 820317. 3656.63  19
  -2   0   2 830858. 4547.29  19
  -2   0   3 18272.1 787.778  19
   2   0   3 17807.6 654.327  19
  -2   0   4 677770. 5537.45  19
   2   0   4 671296. 4629.44  19
  -2   0   5 5312.12 562.744  19
   2   0   5 5878.53 509.749  19
  -2   0   6 363791. 5078.23  19
   2   0   6 364355. 4444.94  19
   2   0   7 15991.0 1044.68  19
  -2   0   7 15277.8 1140.47  19
   2   0   8 363288. 5481.76  19
  -2   0   8 347465. 5859.88  19
   2   0   9 44771.7 2059.47  19
  -2   0   9 41996.1 2165.51  19
  -2  -1 -14 13558.2 1046.00   9
   2  -1 -14 13720.3 912.333   9
  -2  -1 -13 581.872 347.725   9
  -2   1 -13 465.723 245.171  14
  -2  -1 -13 782.626 312.138   4
   2   1 -13 489.279 283.508   5
   2  -1 -13 371.060 265.052   9
  -2   1 -13 589.621 285.209   4
   2   1 -12 32701.4 1967.10   5
  -2  -1 -12 30635.3 1746.42   4
  -2  -1 -12 33377.6 2031.86  14
  -2   1 -12 31730.2 1969.51   5
  -2   1 -12 31432.5 1764.56   4
   2  -1 -12 32402.7 2005.67   9
   2   1 -11 7936.46 1040.04   5
  -2  -1 -11 8086.77 987.598   4
   2  -1 -11 8572.53 941.815   4
   2   1 -11 8091.48 949.597   4
  -2   1 -11 7431.64 941.883   4
  -2  -1 -11 8039.67 1128.23  14
  -2   1 -11 8417.23 1092.40   5
   2  -1 -10 12782.9 1184.41   4
   2   1 -10 13963.0 1381.57   5
  -2   1 -10 12946.5 1284.27   4
  -2  -1 -10 12899.0 1295.22   4
  -2   1 -10 12961.0 1347.19   5
  -2  -1 -10 14377.7 1561.76  14
   2   1 -10 14946.9 1303.16   4
  -2  -1  -9 9934.02 1288.66  14
   2  -1  -9 8963.41 1196.84  13
  -2   1  -9 9072.17 1072.36   4
   2   1  -9 9311.29 1085.83   5
  -2  -1  -9 10837.1 1176.28   4
   2  -1  -9 9309.17 999.898   4
   2   1  -9 10721.4 1080.87   4
  -2  -1  -9 9716.93 1269.85  13
  -2  -1  -8 135856. 4363.39  13
  -2  -1  -7 2222.16 540.242  13
  -2  -1  -4 127557. 2844.69  13
  -2  -1  -4 132482. 1498.65  18
  -2  -1  -3 48296.4 828.283  18
  -2  -1  -3 49620.2 1619.31  13
   2  -1  -3 47331.6 1640.85  17
  -2  -1  -2 197450. 1417.94  18
   2  -1  -2 194614. 2492.30  13
   2  -1  -2 197081. 2975.04  17
   2  -1  -1 260233. 1948.24  16
  -2  -1  -1 259493. 1697.73  18
  -2  -1  -1 259494. 2003.27  17
  -2  -1   0 1877.59 133.367  19
   2  -1   0 1558.26 234.041  19
  -2  -1   1 255673. 2176.80  19
  -2   1   1 258946. 2090.99  18
  -2   1   2 197714. 1483.67  18
  -2  -1   2 199706. 2358.85  19
  -2  -1   3 49361.1 1380.01  19
   2   1   3 46634.3 805.681  19
   2  -1   3 50149.0 1319.70  19
  -2  -1   4 142325. 2676.31  19
  -2   1   4 139910. 2475.20  19
   2  -1   4 133496. 2426.18  19
   2   1   4 133439. 1749.41  19
  -2   1   5 29372.3 1258.33  19
  -2  -1   5 31339.4 1421.66  19
   2  -1   5 29826.3 1283.07  19
   2   1   5 30162.3 992.392  19
  -2   1   6 247794. 4055.77  19
   2  -1   6 261152. 4185.08  19
  -2  -1   6 259466. 4477.04  19
  -2   1   7 2419.16 456.974  19
   2  -1   7 2618.37 477.790  19
  -2  -1   7 2362.45 478.253  19
   2  -1   8 143375. 3736.75  19
  -2  -1   8 149111. 4042.76  19
  -2   1   8 147304. 3652.71  19
   2  -1   9 11129.9 1115.76  19
  -2  -1   9 10118.9 1279.36   6
   2  -1   9 9570.42 1192.09   6
  -2  -1   9 9985.10 1108.65  19
  -2  -1  10 16104.6 1545.16   6
   2  -1  10 15070.6 1509.05   6
   2  -1  11 8473.32 1062.27   6
  -2  -1  11 8027.32 1031.14   6
  -2   2 -13 570.235 256.718  14
  -2   2 -13 50.5896 158.124   5
   2  -2 -13 679.566 307.565   9
   2   2 -13 806.717 301.375   5
  -2  -2 -13 1037.37 420.764   9
   2   2 -12 26633.2 1689.52   5
  -2   2 -12 25659.3 1782.16   5
   2  -2 -12 27955.8 1842.43   9
  -2  -2 -12 26908.0 1360.45   4
  -2  -2 -12 25535.9 1852.29   9
  -2   2 -11 4159.92 798.158   5
  -2  -2 -11 4220.27 632.426   4
  -2   2 -11 3800.97 604.249   4
   2   2 -11 3946.41 719.964   5
   2  -2 -11 3935.10 814.614   9
  -2  -2 -11 3161.42 760.745   9
  -2  -2 -10 21028.7 1914.78   9
  -2  -2 -10 20490.8 1474.14   4
   2  -2 -10 21972.0 1861.59   9
   2   2 -10 22443.0 1749.87   5
  -2   2 -10 22520.1 1496.89   4
  -2  -2 -10 22004.4 1797.77  14
  -2  -2  -9 3230.67 730.397  14
  -2   2  -9 3888.20 641.749   4
   2  -2  -9 3437.42 757.130   9
  -2  -2  -9 2895.29 569.339   4
   2   2  -9 3817.30 650.959   4
  -2  -2  -8 41981.4 2693.50  13
   2  -2  -8 43206.8 2583.34  13
  -2  -2  -8 41749.3 2462.49  14
  -2   2  -8 44475.5 2666.94   8
   2  -2  -8 40826.2 2408.86   9
   2   2  -8 40363.6 2024.21   4
   2  -2  -7 51827.2 2599.47  13
  -2  -2  -7 52252.7 2817.74  13
   2  -2  -6 49567.0 2350.32  13
  -2  -2  -6 48033.1 2501.68  13
  -2  -2  -5 39095.8 2110.08  13
   2  -2  -5 39086.2 1922.22  13
   2  -2  -4 89371.2 2634.38  13
   2  -2  -4 80425.4 2753.69  17
  -2  -2  -4 85951.3 2925.97  13
   2  -2  -3 55199.9 2139.69  17
  -2  -2  -3 54060.3 2242.37  16
   2  -2  -3 59931.2 1947.69  13
  -2  -2  -3 57223.0 2229.48  13
   2  -2  -2 87605.4 2018.57  13
   2  -2  -2 88552.5 2568.64  17
  -2  -2  -2 92367.2 2664.89  13
   2  -2  -2 85889.9 1893.33  16
   2  -2  -1 34587.0 1600.88  17
  -2  -2  -1 31252.2 1014.05  17
  -2  -2  -1 31948.4 1622.98  16
  -2  -2  -1 32398.7 1468.16  13
   2  -2   0 72962.0 1897.88  19
  -2  -2   0 67543.8 2300.01  16
  -2  -2   0 71298.0 1142.87  19
  -2  -2   1 33438.8 1482.60  16
  -2  -2   1 33573.4 906.564  19
   2  -2   1 33348.1 1138.35  19
  -2   2   1 33141.3 819.556  18
   2  -2   2 79297.3 1819.18  19
  -2  -2   2 84337.3 1707.21  19
   2  -2   3 52330.8 1598.58  19
  -2  -2   3 52223.7 1550.68  19
   2  -2   4 81318.0 2156.58  19
  -2  -2   4 85613.9 2212.21  19
  -2   2   4 88003.8 2036.06  19
  -2  -2   5 37387.2 1635.43  19
   2  -2   5 39831.0 1644.18  19
  -2   2   5 39025.7 1464.32  19
   2  -2   6 47212.5 1955.20  19
  -2  -2   6 46797.8 2003.61  19
  -2  -2   7 52794.9 2314.03  19
   2  -2   7 54945.5 2294.44  19
   2  -2   8 44842.9 2751.39   6
   2  -2   8 45543.3 2249.14  19
  -2  -2   8 51044.9 2939.58   6
  -2  -2   8 47177.0 2356.13  19
  -2  -2   9 3709.36 847.062   6
   2  -2   9 3031.25 784.568   6
   2  -2  10 21394.1 1912.02   6
  -2  -2  10 22249.7 1915.06   6
  -2  -2  11 3926.79 761.657   6
   2  -2  11 3919.49 796.817   6
   2  -2  12 24563.2 1727.24   6
  -2  -2  12 22956.7 1394.21  11
  -2  -2  12 24985.2 1686.48   6
   2  -2  13 549.643 214.486   6
   2   3 -13 991.433 237.609   5
   2  -3 -13 825.845 253.984   9
  -2  -3 -12 98922.0 2251.78   2
   2  -3 -12 99220.8 3115.23   9
  -2   3 -12 101942. 3061.26   5
   2   3 -12 94805.1 2699.70   5
  -2  -3 -12 96067.9 3098.72   9
  -2  -3 -11 2063.65 617.144   9
  -2  -3 -11 2211.07 512.136   2
   2  -3 -11 2527.27 661.678   9
  -2   3 -11 2441.88 584.694   5
   2   3 -11 2496.93 547.823   5
   2  -3 -10 129801. 4505.96   9
  -2  -3 -10 124330. 4430.50   9
   2   3 -10 121324. 3832.14   5
  -2  -3 -10 129093. 3883.08   2
  -2  -3  -9 2203.79 724.214   9
   2  -3  -9 2366.96 533.445  15
  -2  -3  -9 2685.25 701.056   2
   2  -3  -9 2542.47 711.004   9
   2  -3  -8 172746. 5323.07   9
  -2  -3  -8 168386. 5277.44   9
  -2   3  -8 172833. 5502.36   8
   2  -3  -8 165813. 4580.37  15
  -2  -3  -7-472.414 811.064   3
   2  -3  -7 423.578 246.934  15
  -2  -3  -7 836.663 406.398  13
  -2  -3  -7 285.610 200.610  15
  -2   3  -7 172.658 241.863   8
   2  -3  -7 739.286 471.346   9
  -2  -3  -7-291.003 270.581   9
  -2  -3  -6 267671. 5600.68  15
   2  -3  -6 266328. 5727.04  15
   2  -3  -6 265806. 6324.54   9
  -2  -3  -6 258339. 6390.94  13
  -2  -3  -6 248361. 6115.33   9
   2  -3  -6 256187. 5397.25  13
  -2  -3  -6 262812. 6688.50   3
  -2   3  -6 274136. 6433.37   8
   2  -3  -5 4107.57 643.296  13
  -2  -3  -5 1932.88 546.754  13
   2  -3  -4 282109. 4875.79  13
  -2  -3  -4 275597. 5736.32  13
   2  -3  -4 265129. 5875.19  17
  -2  -3  -3 477.907 289.146  13
  -2  -3  -3 554.997 367.392  16
   2  -3  -3 305.380 275.770  17
   2  -3  -2 216093. 4890.27  17
   2  -3  -2 212975. 3795.64  16
  -2  -3  -1 4419.74 778.903  16
   2  -3  -1 4889.25 591.000  16
   2  -3  -1 5237.85 767.809  17
  -2  -3  -1 4658.44 507.885  17
   2  -3   0 451465. 5992.67  16
  -2  -3   0 439393. 4896.39  17
   2  -3   1 5079.12 706.088  16
   2  -3   1 4897.84 618.248  19
  -2  -3   1 4100.75 744.383  16
   2  -3   2 217350. 3860.20  19
  -2  -3   2 228258. 3305.22  19
  -2  -3   2 219162. 4973.55  16
   2  -3   2 210796. 4510.60  16
  -2  -3   3 811.758 367.632  16
   2  -3   3 606.930 250.063  19
  -2  -3   3 434.235 196.533  19
  -2  -3   4 273907. 4373.91  19
   2  -3   4 260702. 4583.34  19
   2  -3   5 2042.30 451.978  19
  -2  -3   5 1956.50 416.998  19
  -2  -3   6 277628. 6957.17  10
   2  -3   6 273114. 6996.10  10
   2  -3   6 256663. 5097.82  19
   2  -3   6 275814. 6806.00   6
  -2  -3   6 248796. 4860.43  19
  -2  -3   6 284443. 6716.54   6
  -2  -3   7 622.042 319.911   6
  -2  -3   7 545.768 283.675  19
   2  -3   7 911.404 502.453  10
   2  -3   7 498.433 303.064  19
   2  -3   7-448.009 333.649   6
   2  -3   8 157830. 5839.61  10
  -2  -3   8 165244. 5366.77   6
   2  -3   8 164646. 5463.89   6
  -2  -3   9 2343.19 664.542   6
   2  -3   9 2227.60 710.471   6
  -2  -3  10 122128. 4236.92   6
   2  -3  10 129935. 4521.96   6
   2  -3  11 2594.16 605.601   6
  -2  -3  11 2218.01 556.586   6
   2  -3  12 99288.1 3123.77   6
  -2  -3  12 90278.7 2550.48  11
   2   4 -11 1139.84 267.461   5
  -2  -4 -11 1161.86 343.818   9
  -2   4 -11 1159.98 316.079   5
   2  -4 -11 1100.69 407.892   9
  -2  -4 -10 63622.4 2153.76   2
   2   4 -10 58768.1 2164.16   5
  -2  -4 -10 59411.5 2603.88   9
   2  -4 -10 60350.0 2725.61   9
  -2  -4  -9 13261.2 1392.33   9
   2  -4  -9 13944.7 1496.89   9
   2   4  -9 13441.5 1150.24   5
   2  -4  -9 13475.5 1165.86  15
  -2  -4  -9 14580.0 1221.38   2
  -2  -4  -8 75470.5 3021.47   2
  -2  -4  -8 72711.8 3395.92   9
   2  -4  -8 70655.1 2903.14  15
   2  -4  -8 70905.3 3512.48   9
  -2  -4  -7 18614.9 1810.04   9
   2  -4  -7 19075.9 1893.31   9
   2  -4  -7 18090.9 1573.44  15
  -2   4  -7 19527.0 1785.57   8
  -2  -4  -7 21746.4 1743.20   2
   2  -4  -6 75544.5 2818.61   2
  -2  -4  -6 75997.6 3669.00   9
  -2  -4  -6 77086.0 3263.60   2
  -2   4  -6 75918.5 3488.75   8
   2  -4  -6 75843.2 3247.81  15
   2  -4  -6 75045.3 3750.91   9
  -2  -4  -6 73510.7 3640.53   3
  -2  -4  -5 9648.67 1179.99   2
   2  -4  -5 9495.92 1047.57   2
  -2   4  -5 8861.86 1207.32   8
   2   4  -5 10141.0 1197.39   8
   2  -4  -5 8550.58 1297.22   9
   2  -4  -5 8397.69 1099.35  15
  -2  -4  -5 10723.1 1465.26   3
  -2  -4  -5 9646.03 1313.68   9
  -2  -4  -4 50181.6 2666.05   2
   2  -4  -4 49298.3 2373.82   2
  -2  -4  -4 51097.7 2627.85  15
  -2   4  -4 49113.5 2676.36   8
   2  -4  -4 49327.4 2581.61  15
   2  -4  -4 45603.3 2695.17  17
   2  -4  -4 51190.3 3141.37   9
  -2  -4  -4 52538.8 2998.44   9
  -2  -4  -3 39752.9 2627.25  16
   2  -4  -3 43671.8 2583.01  17
   2  -4  -3 46507.4 2466.27  15
  -2  -4  -3 47771.0 2532.94   2
   2  -4  -3 46345.4 2311.56   2
   2  -4  -3 47124.6 2983.52   9
   2  -4  -2 132601. 4974.71   9
  -2  -4  -2 115417. 4413.26  16
   2  -4  -2 130474. 4009.93  15
   2  -4  -2 120766. 4222.45  17
  -2  -4  -2 133338. 4206.70   2
   2  -4  -2 124502. 3775.32   2
   2  -4  -1 2104.19 560.244  17
  -2  -4  -1 3110.54 686.557   2
  -2  -4  -1 2326.95 685.449  16
   2  -4   0 99660.5 3679.06  17
  -2  -4   0 103817. 3727.15   2
  -2  -4   0 92411.7 3851.95  16
  -2  -4   1 1781.74 587.672  16
   2  -4   1 2708.37 645.559  17
   2  -4   2 118785. 4875.27   9
  -2  -4   2 131582. 4688.89  16
   2  -4   2 127677. 4469.04  10
   2  -4   3 48170.6 2840.48  10
   2  -4   3 40049.6 2890.33   9
  -2  -4   3 47944.0 2765.06  10
  -2  -4   3 44666.3 2796.20  16
   2  -4   4 52805.4 3376.68   9
  -2  -4   4 53510.3 3038.28  10
   2  -4   4 52830.3 3089.75  10
  -2  -4   4 57112.6 3249.90  16
   2  -4   5 9962.12 1249.28   6
  -2  -4   5 9449.17 1160.51   6
  -2  -4   5 9550.23 1334.00  10
   2  -4   5 7969.53 1259.63  10
  -2  -4   6 75427.7 3390.00   6
   2  -4   6 67682.7 3706.22  10
   2  -4   6 74126.9 3519.27   6
  -2  -4   7 20359.8 1764.17   6
   2  -4   7 19035.3 1785.82   6
   2  -4   7 20680.7 2091.10  10
  -2  -4   8 72183.4 3227.10   6
   2  -4   8 71699.0 3348.11   6
  -2  -4   8 74737.5 2645.21  12
   2  -4   9 12121.9 1306.20   6
  -2  -4   9 13374.4 1317.42   6
   2  -4  10 55971.7 2511.07   6
  -2  -4  10 55496.2 2389.32   6
   2  -4  11 1162.03 344.773   6
  -2   5  -9 2798.41 387.002   5
  -2  -5  -9 2321.26 322.217   2
   2  -5  -9 3026.56 525.865   9
  -2  -5  -8 6314.34 709.449   1
   2  -5  -8 6747.33 889.401   9
  -2  -5  -8 7125.98 731.093   2
   2  -5  -7 10882.3 1219.14   9
  -2  -5  -7 9893.86 1009.79   9
  -2  -5  -7 12689.8 1093.89   2
   2  -5  -6 3020.71 755.600   9
  -2  -5  -6 2207.82 581.440   2
  -2   5  -6 3238.77 623.302   8
  -2  -5  -6 3206.47 664.975   9
   2  -5  -5 2614.97 698.806   9
  -2  -5  -5 2571.23 654.681   2
   2  -5  -5 2778.85 646.012  15
  -2   5  -5 2654.33 578.172   8
  -2  -5  -5 2257.92 586.391   9
  -2  -5  -4 30694.0 2013.55   2
   2  -5  -4 32509.8 2388.47   9
   2  -5  -4 30863.3 2018.22  15
  -2   5  -4 32856.9 2055.78   8
  -2  -5  -3 8598.80 1119.64   2
   2  -5  -3 9524.41 1348.26   9
  -2  -5  -2 374.875 478.405   2
   2  -5  -2 757.353 458.139   9
  -2  -5  -2 692.488 313.498  12
   2  -5  -1 21026.8 2009.91   9
  -2  -5  -1 20707.3 1604.60  12
   2  -5  -1 21179.3 1713.64  10
  -2  -5   0 40415.8 2248.60  12
   2  -5   0 39910.9 2159.12  12
   2  -5   0 43445.3 2550.82  10
  -2  -5   0 43714.1 2410.36   1
   2  -5   0 40295.0 2785.62   9
   2  -5   1 21033.3 1850.76  10
  -2  -5   1 20178.3 1596.27  12
  -2  -5   1 21608.3 1661.15   1
   2  -5   1 19313.8 1937.37   9
  -2  -5   2 349.454 307.904  12
   2  -5   2 548.085 412.993   9
   2  -5   2 23.0520 264.679  10
  -2  -5   3 8248.10 1022.90  12
   2  -5   3 7830.97 1225.13   9
  -2  -5   3 9291.82 1200.75  10
   2  -5   3 8892.34 1265.98  10
  -2  -5   4 30582.3 2192.76  10
  -2  -5   4 30867.5 1915.89  12
   2  -5   4 31484.2 2346.53  10
  -2  -5   5 3237.63 629.513  12
   2  -5   5 2672.94 744.082  10
  -2  -5   6 2707.99 553.201  12
   2  -5   6 3442.01 801.785  10
  -2  -5   7 10355.3 935.372  12
   2  -5   7 11726.7 1056.70   6
   2  -5   8 5302.47 642.897   6
   2  -5   8 4802.49 600.078  12
  -2  -5   8 5401.77 586.357  12
  -2  -5   9 3078.75 421.294  11
   2  -5   9 3108.11 374.627  12
   2  -5   9 2867.24 426.446   6
   2  -6  -6 75187.7 2021.56   1
  -2  -6  -6 78623.8 2076.43   1
  -2  -6  -5 43.0815 164.500   1
   2  -6  -5 171.594 143.822   1
   2  -6  -5 186.218 230.254   9
   2  -6  -4 61574.6 2248.45   9
  -2  -6  -4 65367.2 2298.87   1
   2  -6  -4 68487.4 2301.14   1
   2  -6  -3 1498.96 456.449   9
  -2  -6  -3 1304.31 377.495   1
   2  -6  -3 1125.60 346.029   1
   2  -6  -2 109485. 3034.66   1
   2  -6  -2 102702. 3233.81   9
  -2  -6  -2 104065. 3099.54   1
   2  -6  -1 267.749 272.243   9
  -2  -6  -1 462.481 295.586   1
  -2  -6  -1 498.742 230.982  12
   2  -6  -1 738.990 263.608   1
  -2  -6   0 5409.01 699.482  12
   2  -6   0 5083.59 784.455   9
  -2  -6   0 7056.69 803.047   1
   2  -6   1 1114.77 330.231  12
  -2  -6   1 877.834 357.130  12
  -2  -6   2 103162. 2973.72  12
   2  -6   2 102031. 2875.80  12
   2  -6   2 102659. 3104.19  10
  -2  -6   3 1321.28 364.691  12
   2  -6   3 1501.55 383.405  12
   2  -6   3 979.764 361.171  10
   2  -6   4 68137.4 2203.01  12
  -2  -6   4 70352.5 2259.64  12
   2  -6   5 130.333 180.643  12
  -2  -6   5 147.770 156.961  12
  -2  -6   6 77437.7 1876.97  12
   2  -6   6 78366.6 1929.42  12
  -3   0 -14 462.756 310.169   9
  -3   0 -13 45.5413 245.843   4
   3   0 -13 224.976 213.238   5
  -3   0 -13 240.170 254.532  14
   3   0 -13 356.584 205.800   9
  -3   0 -12-109.777 287.727   4
  -3   0 -12 1656.51 603.489  14
   3   0 -12 1195.72 417.825   5
  -3   0 -11-32.2836 288.114   4
   3   0 -11-5.72120 222.876   4
   3   0 -11 216.298 306.231   5
   3   0 -10 225.889 289.635   4
   3   0 -10 271.902 277.227   5
  -3   0 -10 500.819 380.541   4
   3   0  -9-166.444 213.035   4
   3   0  -9-14.2893 115.822   5
  -3   0  -9 206.048 262.357   4
   3   0  -1 185.516 111.796  17
  -3   0  -1 5.08872 103.061  18
  -3   0   0 45.0507 103.356  18
  -3   0   0 59.0432 72.6823  16
  -3   0   0 58.3124 80.1462  13
  -3   0   1 438.129 135.882  18
   3   0   1 117.037 89.1330  19
   3   0   2 106.559 84.3297  19
  -3   0   2 127.658 108.339  18
   3   0   3 200.130 110.934  19
  -3   0   3 70.0485 140.367  19
   3   0   4 44.6770 90.1190  19
  -3   0   4 80.5126 142.479  19
  -3   0   5 84.1137 189.586  19
   3   0   5 117.829 128.100  19
   3   0   6 66.0856 134.201  19
  -3   0   6 436.133 252.540  19
  -3   0   7 82.3962 188.477  19
   3   0   7-243.556 155.999  19
  -3   0   8 402.798 245.970  19
   3   0   8 117.831 148.316  19
  -3   0   9-81.3417 160.316  19
   3   0   9 97.3017 112.875  19
  -3  -1 -14 66487.9 2240.84   9
   3  -1 -14 62076.8 1730.98   9
  -3  -1 -13 9862.53 1099.39   9
  -3  -1 -13 11340.8 942.144   4
   3   1 -13 10560.1 996.053   5
  -3   1 -13 9289.96 1051.75  14
   3  -1 -13 11998.8 1024.89   9
  -3   1 -13 11683.0 955.359   4
   3  -1 -12 52491.8 2458.73   9
   3   1 -12 54623.8 2501.15   5
  -3   1 -12 51403.6 2273.03   4
  -3   1 -12 46674.5 2297.49   5
  -3  -1 -12 53289.9 2350.18   4
  -3  -1 -12 51682.4 2573.85  14
   3  -1 -11 19668.7 1645.88   9
  -3  -1 -11 19667.5 1786.40  14
  -3  -1 -11 19272.5 1567.98   4
  -3   1 -11 19156.8 1627.48   5
  -3   1 -11 19899.1 1540.94   4
   3  -1 -11 22305.4 1502.65   4
   3   1 -11 22074.7 1691.55   5
   3  -1 -11 21566.5 1614.65   5
   3   1 -10 108856. 3805.80   5
  -3  -1 -10 104544. 3761.16   4
  -3   1 -10 99236.2 3567.47   4
   3  -1 -10 103755. 3666.09   5
  -3  -1 -10 97387.2 4070.03  14
   3   1 -10 109653. 3462.26   4
   3  -1 -10 108796. 3371.71   4
  -3  -1  -9 10613.0 1209.03   4
  -3  -1  -9 11025.3 1395.74  14
   3   1  -9 11865.0 1127.06   4
  -3  -1  -9 10781.9 1361.94  13
   3   1  -9 11433.5 1221.48   5
   3  -1  -9 10862.9 1047.32   4
   3  -1  -9 10074.4 1260.98  13
  -3   1  -9 11759.6 1237.25   4
   3  -1  -9 10630.1 1160.80   5
  -3  -1  -8 244180. 5882.62  13
  -3  -1  -7 4986.24 795.767  13
  -3  -1  -6 203613. 4410.18  13
  -3  -1  -5 5582.06 390.513  18
  -3  -1  -5 5363.29 678.052  13
  -3  -1  -4 376422. 4996.67  13
   3  -1  -4 381817. 5432.70  17
  -3  -1  -4 387578. 3003.71  18
   3  -1  -3 105481. 2610.17  17
  -3  -1  -3 107770. 1497.67  18
  -3  -1  -2 640844. 5522.71  13
   3  -1  -2 653922. 4196.54  13
  -3  -1  -2 640696. 3392.63  18
   3  -1  -2 642137. 5811.15  17
   3  -1  -1 549389. 5115.20  17
  -3  -1  -1 551863. 3085.19  18
  -3  -1   0 992673. 4567.16  18
  -3  -1   0 999999. 3453.80  19
  -3   1   1 566946. 3734.99  18
  -3  -1   1 555671. 3445.45  19
   3  -1   1 560392. 3911.00  19
  -3   1   2 691890. 3659.79  18
  -3  -1   2 687398. 4593.78  19
   3  -1   2 688661. 4513.39  19
   3   1   3 109048. 1144.66  19
  -3  -1   3 107858. 2132.36  19
   3  -1   3 110794. 2012.73  19
   3  -1   4 383377. 4108.57  19
   3   1   4 378812. 2741.23  19
  -3   1   4 377499. 4377.11  19
  -3  -1   4 381202. 4535.69  19
  -3  -1   5 5945.80 649.673  19
   3   1   5 5536.77 402.541  19
  -3   1   5 5085.76 561.841  19
   3  -1   5 5297.26 548.864  19
  -3  -1   6 220592. 4266.46  19
   3  -1   6 228925. 3855.45  19
  -3   1   7 5384.89 680.852  19
  -3  -1   7 5540.19 753.219  19
   3  -1   7 4750.12 624.327  19
   3  -1   8 250912. 4894.80  19
  -3  -1   8 261812. 5416.08  19
  -3  -1   9 12421.5 1404.01   6
   3  -1   9 10377.0 1267.37   6
  -3  -1   9 11575.5 1215.25  19
  -3   1   9 10753.7 1083.44  19
   3  -1   9 12158.1 1160.67  19
   3  -1  10 115044. 4157.82   6
  -3  -1  10 119729. 4239.10   6
  -3  -1  11 20802.2 1674.18   6
   3   2 -13 1760.51 405.873   5
  -3   2 -13 1107.52 353.613  14
   3  -2 -13 2072.27 452.222   9
  -3  -2 -13 2263.45 523.999   9
  -3  -2 -13 1947.12 356.928   2
  -3   2 -12 51860.3 2504.87   5
  -3  -2 -12 56030.5 2658.62   9
  -3  -2 -12 57250.4 2011.31   4
  -3   2 -12 58870.4 2030.30   4
   3   2 -12 56214.8 2392.25   5
   3  -2 -12 59923.7 2580.86   9
   3  -2 -11 626.459 398.386   9
  -3  -2 -11 372.275 409.779   9
  -3   2 -11 352.193 276.665   4
  -3  -2 -11 207.883 212.301   4
   3   2 -11 214.883 268.258   5
  -3   2 -11 535.815 343.528   5
   3  -2 -10 91745.2 3698.65   9
  -3  -2 -10 86768.0 3798.98   9
  -3  -2 -10 98422.1 3847.40  14
  -3  -2 -10 91247.8 3210.98   4
   3   2 -10 85152.4 3389.70   5
  -3   2 -10 94287.2 3053.33   4
   3   2  -9 778.035 401.845   5
  -3  -2  -9 673.004 295.970   4
  -3  -2  -9 1705.79 580.423  14
   3  -2  -9 735.159 490.841   9
  -3   2  -9 878.300 272.628   4
   3  -2  -8 286873. 6284.66   9
  -3  -2  -8 270153. 6888.85  13
  -3   2  -8 311553. 7257.73   8
  -3  -2  -8 293468. 7565.57   3
  -3  -2  -8 292841. 6654.70  14
   3  -2  -7 12215.1 1232.29  13
  -3  -2  -7 11250.9 1315.69  13
   3  -2  -6 277134. 5301.38  13
  -3  -2  -6 248295. 5776.67  13
   3  -2  -5 2241.64 474.174  13
  -3  -2  -5 2622.35 627.239  13
   3  -2  -4 322349. 5915.42  17
  -3  -2  -4 331150. 5760.43  13
   3  -2  -4 341948. 4940.90  13
  -3  -2  -3 16710.7 1337.81  16
   3  -2  -3 17911.0 1339.58  17
  -3  -2  -3 19749.9 1365.01  13
   3  -2  -3 20480.7 1069.76  13
   3  -2  -2 219119. 4360.69  17
  -3  -2  -2 238561. 4295.13  13
   3  -2  -2 223123. 2724.08  16
   3  -2  -2 233603. 2997.64  13
  -3  -2  -1 2503.90 514.165  16
   3  -2  -1 2300.04 282.391  16
   3  -2  -1 2415.05 511.826  17
  -3  -2  -1 3010.33 504.411  13
  -3  -2  -1 2566.58 278.289  17
  -3  -2   0 416688. 5690.68  16
  -3  -2   0 418752. 3072.73  17
   3  -2   1 2425.86 349.069  19
  -3   2   1 2445.50 270.267  18
  -3  -2   1 2637.14 260.896  19
  -3  -2   1 2415.85 458.176  16
   3  -2   2 235022. 3307.08  19
  -3  -2   2 238319. 2966.06  19
  -3   2   2 233362. 2161.89  18
  -3  -2   3 19836.7 978.952  19
   3  -2   3 19659.3 1018.13  19
  -3  -2   4 320143. 4406.53  19
   3  -2   4 341744. 4531.08  19
   3  -2   5 2707.57 461.036  19
  -3   2   5 2725.24 442.784  19
  -3  -2   5 2260.84 447.066  19
  -3  -2   6 249860. 4728.64  19
  -3   2   6 248636. 4268.93  19
   3  -2   6 257336. 4607.98  19
   3  -2   7 12020.4 1092.09  19
  -3  -2   7 12467.0 1159.88  19
  -3  -2   8 316638. 7293.44   6
   3  -2   8 310311. 5864.81  19
  -3  -2   8 308408. 6052.80  19
   3  -2   8 297909. 7169.12   6
  -3  -2   9 707.758 436.867   6
   3  -2   9 638.571 411.769   6
   3  -2  10 94678.5 4060.14   6
  -3  -2  10 94669.5 3902.85   6
   3  -2  11 599.899 378.424   6
  -3  -2  11-14.8228 183.587   6
   3  -2  12 57373.1 2663.64   6
  -3  -2  12 56304.3 2144.63  11
   3  -2  13 1202.20 298.031   6
   3   3 -13 7146.43 540.168   5
   3  -3 -12 3481.86 610.459   9
   3   3 -12 3362.38 524.262   5
  -3   3 -12 2737.21 532.670   5
  -3  -3 -12 3385.86 591.209   9
  -3  -3 -12 2628.66 438.867   2
  -3   3 -11 552.170 384.281   5
   3   3 -11 416.242 284.265   5
  -3  -3 -11 468.358 414.919   9
  -3  -3 -11 1053.64 357.109   2
   3  -3 -11 226.610 360.410   9
   3   3 -10 15210.3 1357.57   5
  -3  -3 -10 16257.1 1584.82   9
  -3  -3 -10 15553.9 1403.96   2
   3  -3 -10 16355.0 1615.38   9
   3  -3  -9 10699.6 1354.42   9
  -3  -3  -9 11692.0 1427.13   9
   3   3  -9 11612.1 1230.80   5
   3  -3  -9 11245.0 1153.82  15
  -3  -3  -8 29589.6 2192.80   9
   3  -3  -8 30338.1 2243.49   9
   3  -3  -8 27864.6 1911.78  15
  -3   3  -8 30793.8 2398.76   8
   3  -3  -7 8288.94 1182.50   9
   3  -3  -7 9415.78 1129.20  15
  -3   3  -7 9471.15 1307.70   8
  -3  -3  -7 9558.06 1285.61  13
  -3  -3  -7 7294.35 1326.20   3
  -3  -3  -7 8551.21 1180.75   9
  -3  -3  -6 2006.60 869.013   3
  -3   3  -6 1024.00 445.452   8
  -3  -3  -6 2363.36 616.236   9
   3  -3  -6 1655.48 548.751   9
   3  -3  -6 2019.56 536.671  15
  -3  -3  -6 1607.82 433.787  15
  -3  -3  -6 1150.66 470.374  13
   3  -3  -5 2532.65 650.277  17
  -3  -3  -5 1979.84 528.197  13
   3  -3  -4 4276.54 822.532  17
  -3  -3  -4 4674.51 791.557  13
  -3  -3  -3 42032.3 2177.63  13
   3  -3  -3 40719.4 2379.50  17
  -3  -3  -2 27654.0 2006.11  16
   3  -3  -2 31444.2 2004.95  17
   3  -3  -1 44371.3 2287.53  17
  -3  -3  -1 46117.8 2426.70  16
  -3  -3   0 8571.88 1038.19  16
   3  -3   0 7662.32 707.152  16
  -3  -3   1 45419.8 2339.00  16
   3  -3   1 46313.4 1921.29  16
   3  -3   1 46182.1 1969.75  19
  -3  -3   2 36229.4 2067.17  16
   3  -3   2 36428.6 1802.85  16
   3  -3   2 36633.0 1692.82  19
  -3  -3   3 40856.0 1537.77  19
   3  -3   3 38921.4 1764.16  19
  -3  -3   3 40712.0 2176.33  16
   3  -3   4 2921.77 530.146  19
  -3  -3   4 3133.14 482.313  19
   3  -3   5 2626.72 519.772  19
  -3  -3   5 2456.24 473.748  19
  -3  -3   6 1676.64 518.700   6
   3  -3   6 1936.12 486.366  19
   3  -3   6 1767.64 593.834   6
   3  -3   6 1084.26 512.391  10
  -3  -3   6 920.543 333.903  19
   3  -3   7 9320.18 1055.00  19
   3  -3   7 9646.75 1411.41  10
   3  -3   7 9392.54 1302.67   6
  -3  -3   7 9796.68 1287.31   6
  -3  -3   7 8547.01 980.997  19
   3  -3   8 26841.4 2246.21   6
  -3  -3   8 25746.8 2133.22   6
   3  -3   8 27363.6 2496.93  10
  -3  -3   9 11718.2 1402.56   6
   3  -3   9 10678.6 1413.83   6
   3  -3  10 13128.6 1485.25   6
  -3  -3  10 14034.2 1457.73   6
  -3  -3  11 444.637 317.102   6
  -3   3  11 469.575 215.018   7
   3  -3  11-97.6541 276.658   6
   3  -3  12 3673.74 619.358   6
  -3  -3  12 3913.96 538.954  11
  -3   4 -11 2532.24 446.951   5
  -3  -4 -11 2299.16 324.683   2
   3  -4 -11 2709.72 492.197   9
   3   4 -11 2427.49 349.749   5
   3   4 -10 75638.1 2343.81   5
  -3  -4 -10 84949.3 2564.72   2
   3  -4 -10 83948.0 3124.43   9
  -3  -4 -10 79880.3 2790.56   9
   3   4  -9 9117.87 924.750   5
   3  -4  -9 9635.10 1262.29   9
  -3  -4  -9 9631.51 909.038   1
   3  -4  -9 9409.54 981.301  15
  -3  -4  -9 8576.03 1078.74   9
  -3  -4  -9 8541.95 972.320   2
  -3  -4  -8 32262.5 2178.49   9
   3   4  -8 27130.6 1702.76   5
  -3   4  -8 30361.4 2190.67   8
  -3  -4  -8 31785.2 2028.91   2
   3  -4  -8 29031.2 1890.47  15
   3  -4  -8 28499.7 2198.05   9
  -3  -4  -7 1524.32 648.233   2
   3  -4  -7 1581.67 624.820   9
  -3  -4  -7 1876.65 586.000   9
   3  -4  -7 1496.87 517.061  15
  -3   4  -7 1385.93 522.366   8
  -3  -4  -6 101154. 4072.93   9
  -3  -4  -6 93000.3 4164.11   3
  -3   4  -6 97672.3 4036.64   8
   3  -4  -6 98146.8 3734.55  15
  -3  -4  -6 99576.9 3818.89   2
   3  -4  -6 101901. 4327.34   9
   3  -4  -5 5046.55 997.051   9
  -3   4  -5 4786.40 904.596   8
  -3  -4  -5 4952.86 1149.71   3
  -3  -4  -5 5610.83 945.958   2
   3  -4  -5 5079.89 888.322  15
  -3  -4  -5 4739.43 905.922   9
  -3   4  -4 90179.4 3727.03   8
   3  -4  -4 86568.7 3458.28  15
   3  -4  -4 88711.2 3116.53   2
  -3  -4  -4 92984.5 3660.17   2
   3  -4  -4 83282.0 3885.97  17
  -3  -4  -4 85476.2 3849.08   3
   3  -4  -4 88829.8 4096.71   9
   3  -4  -3 2727.75 552.231   2
  -3  -4  -3 2742.52 761.799  16
   3  -4  -3 3331.81 902.903   9
  -3  -4  -3 3061.90 705.547   2
   3  -4  -3 2866.05 647.823  17
   3  -4  -2 102870. 4120.17  17
   3  -4  -2 110137. 3718.07  15
  -3  -4  -2 112688. 3945.48   2
   3  -4  -2 105816. 3465.49   2
  -3  -4  -2 103559. 3430.01  12
   3  -4  -2 116000. 4632.39   9
  -3  -4  -1 1320.72 480.519   2
   3  -4  -1 1227.04 443.414  17
  -3  -4  -1 1629.57 619.179  16
  -3  -4  -1 1067.43 384.584  12
   3  -4  -1 1661.31 688.210   9
  -3  -4   0 210736. 5419.11   2
  -3  -4   0 210707. 5935.51  16
  -3  -4   0 218017. 4986.80  12
   3  -4   0 199283. 5471.22  17
   3  -4   1 1192.63 475.872  10
  -3  -4   1 1499.15 556.158   2
  -3  -4   1 1458.27 429.733  12
   3  -4   1 1396.84 501.584  17
  -3  -4   1 698.377 458.144  16
   3  -4   1 962.430 508.037   9
   3  -4   2 109539. 4255.41  10
  -3  -4   2 108259. 3595.16  12
  -3  -4   2 108149. 4294.71  16
   3  -4   2 102008. 4608.38   9
   3  -4   3 2276.43 778.620   9
  -3  -4   3 3047.86 730.882  16
   3  -4   3 2963.68 718.369  10
  -3  -4   3 3474.97 756.110  10
   3  -4   4 94024.1 3800.63   6
  -3  -4   4 101829. 4333.12  16
  -3  -4   4 93184.0 4047.94  10
   3  -4   4 93284.8 4147.61  10
   3  -4   5 5385.98 1073.64  10
  -3  -4   5 4690.26 811.117   6
   3  -4   5 4802.56 903.981   6
  -3  -4   5 5489.01 1027.24  10
  -3  -4   6 97579.5 3824.64   6
  -3  -4   6 101031. 3455.19  12
   3  -4   6 98661.0 4108.48   6
   3  -4   6 100217. 4586.39  10
  -3  -4   7 1889.91 495.604  12
   3  -4   7 1449.05 721.137  10
  -3  -4   7 1162.97 433.825   6
   3  -4   7 1239.47 512.890   6
  -3  -4   8 27452.7 1567.78  12
  -3  -4   8 28045.8 1998.03   6
   3  -4   8 27240.6 2087.14   6
   3  -4   9 8469.56 1107.25   6
  -3  -4   9 8876.55 1061.50   6
  -3  -4  10 80436.3 2848.28   6
   3  -4  10 80545.9 3006.45   6
   3  -4  11 2626.07 476.331   6
  -3  -4  11 2457.73 401.949  11
   3  -5  -9 384.443 243.181   9
  -3   5  -9 131.733 109.083   5
  -3  -5  -9 195.795 156.995   2
  -3  -5  -8 74060.4 2312.26   2
  -3  -5  -8 68488.6 2221.47   1
   3  -5  -8 73248.8 2743.43   9
  -3  -5  -7 1399.28 439.412   2
  -3  -5  -7 1269.89 429.578   1
   3  -5  -7 1354.58 547.643   9
  -3   5  -6 93496.0 3297.29   8
   3  -5  -6 95870.8 3356.67  15
   3  -5  -6 94912.0 3724.69   9
  -3  -5  -6 95716.9 3227.81   2
  -3   5  -5 5225.75 830.759   8
   3  -5  -5 4650.52 882.461   9
   3  -5  -5 4379.33 777.000  15
  -3  -5  -5 4645.20 812.556   2
  -3  -5  -4 102530. 3701.57   2
  -3   5  -4 108042. 3766.52   8
   3  -5  -4 103619. 4243.86   9
   3  -5  -4 103898. 3683.36  15
  -3   5  -3 11406.6 1255.81   8
   3  -5  -3 10999.7 1228.12  15
  -3  -5  -3 10109.3 1241.63   2
   3  -5  -3 9833.99 1371.17   9
   3  -5  -2 121338. 3977.32  15
  -3  -5  -2 119249. 3811.19  12
  -3  -5  -2 120842. 4186.54   2
   3  -5  -2 122465. 4750.90   9
  -3  -5  -1 3802.98 709.265  12
  -3  -5  -1 3837.52 755.090   1
   3  -5  -1 3042.76 689.238  10
   3  -5  -1 3877.26 952.368   9
  -3  -5   0 88967.5 3378.69  12
   3  -5   0 93200.1 3266.20  12
  -3  -5   0 92491.0 3515.65   1
   3  -5   0 88856.1 4178.01   9
   3  -5   0 93441.4 3851.05  10
   3  -5   1 2671.60 740.036   9
  -3  -5   1 2861.39 624.978  12
   3  -5   1 2846.89 718.801  10
  -3  -5   1 3395.48 677.427   1
   3  -5   2 118066. 4525.32  10
  -3  -5   2 110822. 3748.88  12
   3  -5   3 11204.6 1410.64  10
  -3  -5   3 11153.9 1177.97  12
   3  -5   3 8851.35 1309.53   9
  -3  -5   4 99646.4 3424.29  12
   3  -5   4 105590. 4328.02  10
  -3  -5   5 4492.74 735.665  12
   3  -5   5 3529.61 832.417  10
  -3  -5   6 90669.6 2951.82  12
   3  -5   6 94202.7 3972.88  10
   3  -5   6 91437.1 3058.77   6
   3  -5   7 1602.10 429.571   6
  -3  -5   7 1256.44 344.698  12
   3  -5   8 71028.7 2344.59   6
  -3  -5   8 67951.1 1932.81  12
   3  -5   8 69034.2 2188.41  12
   3  -5   9 389.979 150.239  12
   3  -5   9 235.180 168.499   6
  -3  -5   9 528.496 196.783  11
   3  -6  -6 2769.90 391.794   1
  -3  -6  -6 3278.14 427.244   1
   3  -6  -5 3118.03 503.312   9
  -3  -6  -5 3353.70 498.927   1
  -3  -6  -4 10756.2 937.403   1
   3  -6  -4 9363.64 921.155   9
   3  -6  -3 4455.87 689.178   9
  -3  -6  -3 4616.38 648.238   1
   3  -6  -2 703.900 378.791   9
  -3  -6  -2-78.8589 202.437   1
   3  -6  -2 325.146 202.551   1
   3  -6  -1-246.284 310.911   9
  -3  -6  -1 74.7212 202.468   1
  -3  -6  -1 487.025 239.404  12
  -3  -6   0 54628.7 2186.21   1
  -3  -6   0 53804.7 2136.09  12
   3  -6   0 51389.4 2401.67   9
  -3  -6   1 535.702 283.524  12
   3  -6   1 1058.73 316.509  12
   3  -6   1 505.117 327.508  10
   3  -6   2-152.600 180.312  12
  -3  -6   2 97.7694 230.618  12
   3  -6   2 142.845 210.871  10
   3  -6   3 4532.58 595.905  12
   3  -6   3 4604.67 705.167  10
  -3  -6   3 4689.31 632.308  12
   3  -6   4 10038.4 835.073  12
  -3  -6   4 11248.9 898.781  12
   3  -6   5 4045.77 502.356  12
  -3  -6   5 3596.44 472.142  12
  -3  -6   6 2913.54 358.398  12
   3  -6   6 3254.86 394.916  12
  -4   0 -14 102618. 2847.24   9
  -4   0 -14 123767. 2695.40   4
  -4   0 -13 4686.03 667.474   4
  -4   0 -13 5145.80 778.301  14
   4   0 -13 4629.80 651.164   5
   4   0 -13 4440.40 564.308   9
   4   0 -12 175819. 4149.41   9
   4   0 -12 164146. 4313.91   5
  -4   0 -12 174157. 4517.58   4
  -4   0 -12 165881. 4991.52  14
  -4   0 -11 10235.9 1221.76   4
   4   0 -11 9344.84 1118.05   5
  -4   0 -10 343893. 7117.82   4
   4   0 -10 338084. 6692.66   5
  -4   0  -9 16261.7 1526.09   4
   4   0  -9 18202.2 1386.89   4
   4   0  -9 18537.7 1527.20   5
   4   0  -2 488269. 4247.28  17
  -4   0  -2 490143. 3527.32  18
   4   0  -1 46576.1 1095.61  17
  -4   0  -1 45471.1 1082.73  18
  -4   0  -1 47556.9 968.089  13
  -4   0   0 391717. 2271.17  13
  -4   0   0 377272. 2646.54  16
   4   0   1 44616.3 1077.14  19
  -4   0   1 46049.4 1119.27  18
  -4   0   2 473425. 3668.18  18
   4   0   2 475523. 3296.95  19
  -4   0   3 16864.5 895.264  19
   4   0   3 14744.3 630.956  19
   4   0   4 595036. 4430.04  19
  -4   0   4 613362. 5803.69  19
   4   0   5 94911.2 1952.31  19
  -4   0   5 92096.1 2502.31  19
   4   0   6 209086. 3205.01  19
  -4   0   6 202896. 4052.29  19
   4   0   7 23622.2 1202.97  19
  -4   0   7 22558.7 1478.17  19
   4   0   8 234041. 4210.51  19
  -4   0   8 232384. 5088.54  19
  -4   0   9 15747.4 1418.08  19
  -4   0  14 110263. 2469.16   7
  -4  -1 -14 30090.4 1413.43   9
   4   1 -14 29074.1 1171.31   5
  -4   1 -13 2711.14 565.947  14
   4   1 -13 3158.13 539.394   5
  -4  -1 -13 3441.30 662.041   9
  -4   1 -13 3454.22 540.496   4
   4  -1 -13 3243.13 535.073   9
  -4  -1 -13 3529.49 542.979   4
  -4  -1 -12 71724.8 3059.72  14
  -4   1 -12 78646.9 2825.78   4
  -4  -1 -12 80756.1 2945.34   4
   4  -1 -12 75500.9 2678.63   5
   4  -1 -12 78643.9 2881.51   9
   4   1 -12 77544.4 2922.20   5
   4  -1 -11 6135.58 919.696   9
  -4   1 -11 7008.65 965.045   4
  -4  -1 -11 6573.47 954.865   4
  -4  -1 -11 6738.52 1089.45  14
  -4   1 -11 6526.94 930.805   5
   4   1 -11 7092.26 957.944   5
   4  -1 -11 6222.16 893.123   5
   4   1 -10 32398.1 2083.45   5
   4  -1 -10 31735.6 2076.67   9
  -4  -1 -10 34743.7 2232.26   4
  -4  -1 -10 32537.2 2375.93  14
  -4   1 -10 33852.8 2151.51   4
   4  -1 -10 34836.8 1908.18   4
   4  -1 -10 34356.5 2138.57   5
   4   1  -9 2309.65 523.566   4
  -4  -1  -9 1829.14 591.132   4
   4  -1  -9 1970.57 470.882   4
  -4   1  -9 1724.51 507.707   4
   4  -1  -9 1342.42 445.317   5
  -4  -1  -9 1648.69 619.819  13
   4   1  -9 1951.09 531.628   5
  -4  -1  -9 2345.62 748.384  14
  -4  -1  -8 71642.1 3213.61  13
  -4  -1  -7 8538.09 1038.85  13
  -4  -1  -6 49752.0 2229.05  13
  -4  -1  -5 31846.3 1044.97  18
  -4  -1  -5 32414.6 1660.04  13
  -4  -1  -4 113363. 2804.28  13
   4  -1  -4 115734. 3168.54  17
  -4  -1  -4 112689. 1840.45  18
   4  -1  -3 54952.6 2007.96  17
   4  -1  -3 59464.6 1415.71  13
  -4  -1  -3 57175.0 1258.38  18
  -4  -1  -3 58477.2 1869.03  13
   4  -1  -2 666036. 6343.50  17
   4  -1  -2 714544. 3887.97  13
  -4  -1  -2 699467. 6023.22  13
  -4  -1  -2 702834. 4225.38  18
  -4  -1  -2 677299. 6405.63  16
  -4  -1  -1 145986. 2610.06  13
   4  -1  -1 138451. 2740.70  17
  -4  -1  -1 140518. 2666.44  16
  -4   1   0 416.376 147.225  18
  -4  -1   0 427.017 153.627  18
  -4  -1   0 660.782 121.054  19
  -4  -1   0 559.343 222.157  16
  -4  -1   1 119711. 1743.78  19
  -4  -1   1 122234. 2175.36  16
  -4  -1   1 123591. 1963.91  18
   4  -1   1 123986. 2099.28  19
  -4   1   2 696475. 4506.69  18
  -4  -1   2 694900. 4944.03  19
   4  -1   2 695224. 5000.59  19
   4  -1   3 57895.7 1523.31  19
  -4   1   3 57783.6 1273.29  18
  -4  -1   3 55434.8 1610.63  19
   4   1   3 56033.3 898.897  19
   4   1   4 113809. 1518.81  19
  -4  -1   4 109063. 2511.25  19
   4  -1   4 108352. 2241.99  19
  -4   1   5 32483.6 1513.90  19
  -4  -1   5 33603.6 1560.98  19
   4  -1   5 33842.8 1360.76  19
   4  -1   6 53434.3 1877.58  19
  -4   1   6 53617.1 2072.35  19
  -4  -1   6 55718.9 2204.74  19
   4  -1   7 8780.82 831.929  19
  -4   1   7 8362.70 890.654  19
  -4  -1   7 8739.98 963.625  19
   4  -1   8 79736.0 2721.64  19
  -4   1   8 74178.5 2806.62  19
  -4  -1   8 80679.0 3082.25  19
  -4   1   9 2135.72 520.460  19
  -4  -1   9 2605.85 608.512  19
  -4  -1   9 1595.72 522.927   6
   4  -1   9 1424.43 516.929   6
   4  -1   9 2565.46 537.400  19
  -4  -1  10 29852.6 2171.80   6
   4  -1  10 29415.6 2141.79   6
  -4   1  14 26520.3 1186.10   7
   4   2 -13 2165.43 420.793   5
   4  -2 -13 1821.85 390.615   9
  -4  -2 -13 2288.85 475.297   9
  -4  -2 -13 1865.69 370.664   2
  -4   2 -13 1981.83 453.050  14
  -4  -2 -12 25926.2 1758.03   9
  -4   2 -12 26863.2 1352.48   4
   4   2 -12 27204.9 1620.65   5
  -4  -2 -12 26873.7 1397.77   4
   4  -2 -12 26960.2 1680.09   9
  -4  -2 -11 6599.09 1025.84   9
  -4   2 -11 6728.86 989.697   5
   4  -2 -11 8070.86 1051.38   9
  -4   2 -11 7241.68 812.734   4
  -4  -2 -11 6527.35 807.784   4
   4   2 -11 6944.33 918.172   5
   4   2 -10 36160.4 2190.20   5
   4  -2 -10 35956.3 2275.82   9
  -4  -2 -10 32070.4 2290.01   9
  -4   2 -10 35661.1 1907.41   4
  -4  -2 -10 36620.5 2391.81  14
  -4  -2 -10 37705.3 2121.77   4
   4  -2  -9 24590.5 1908.05   9
   4   2  -9 23999.1 1801.59   5
  -4   2  -9 25641.3 2235.47   8
  -4  -2  -9 22894.0 1721.24   4
  -4   2  -9 25147.4 1665.84   4
  -4  -2  -9 26474.1 2073.72  14
   4   2  -8 58245.2 2753.56   5
   4  -2  -8 56354.3 2796.40   9
  -4   2  -8 62580.4 3365.10   8
  -4  -2  -8 56124.4 3444.02   3
  -4  -2  -8 51925.6 3017.52  13
  -4  -2  -8 50833.1 2530.27   4
  -4  -2  -8 55061.8 2943.51  14
  -4  -2  -7 8189.68 1142.56  13
  -4  -2  -6 26241.9 1890.03  13
  -4  -2  -5-357.207 308.621  13
   4  -2  -5 215.081 309.095  17
   4  -2  -5-416.396 225.429  13
   4  -2  -4 45635.8 2383.31  17
   4  -2  -4 47553.6 1695.93  13
  -4  -2  -4 46937.8 2203.42  13
  -4  -2  -3 30171.3 1675.09  13
  -4  -2  -3 23808.6 1650.28  16
   4  -2  -3 26895.2 1099.20  13
   4  -2  -3 27173.3 1749.82  17
  -4  -2  -2 88875.7 2619.69  13
  -4  -2  -2 81151.6 2863.12  16
  -4  -2  -1 35183.1 1744.88  16
   4  -2  -1 30969.6 813.521  16
   4  -2   0 2746.06 288.563  16
  -4  -2   0 2595.61 489.608  16
  -4   2   0 2534.39 308.042  18
   4  -2   1 31638.0 1342.37  19
  -4   2   1 30383.1 1040.56  18
  -4  -2   1 33046.6 1565.40  16
  -4  -2   1 34088.3 945.463  19
  -4  -2   2 76818.3 1736.63  19
   4  -2   2 74273.1 2002.92  19
   4  -2   3 28401.6 1300.52  19
  -4  -2   3 26771.0 1165.68  19
   4  -2   4 47264.3 1769.93  19
  -4  -2   4 43327.0 1673.65  19
  -4   2   5 104.166 114.091  19
  -4  -2   5 132.316 186.193  19
   4  -2   5 59.3208 160.634  19
   4  -2   6 24941.3 1460.50  19
  -4   2   6 25861.4 1461.27  19
  -4  -2   6 26104.6 1569.08  19
   4  -2   7 9035.69 955.549  19
  -4  -2   7 9143.11 1022.53  19
  -4  -2   8 51279.9 2533.36  19
   4  -2   8 54377.3 2489.28  19
  -4  -2   8 51455.0 2971.29   6
   4  -2   8 50783.1 3033.63   6
   4  -2   8 42646.7 2708.82  10
  -4  -2   9 24342.1 2060.81   6
   4  -2   9 25790.0 2187.12   6
  -4  -2  10 36566.4 2436.63   6
   4  -2  10 37776.4 2614.02   6
  -4  -2  11 7984.37 1063.24   6
   4  -2  11 8072.60 1156.40   6
   4  -2  12 26037.3 1783.69   6
  -4  -2  12 23815.1 1381.32  11
  -4   2  13 1927.01 352.494   7
  -4  -3 -12 79857.3 2483.23   9
  -4  -3 -12 84632.6 2274.90   2
   4   3 -12 79405.2 2267.35   5
   4  -3 -12 81496.8 2580.18   9
  -4  -3 -11 925.394 391.978   9
  -4   3 -11 1671.33 519.880   5
   4  -3 -11 1448.89 499.068   9
   4   3 -11 1435.96 387.112   5
  -4  -3 -11 1604.79 462.515   2
   4  -3 -10 143928. 4536.80   9
   4   3 -10 137003. 3900.76   5
  -4  -3 -10 138013. 4134.77   2
   4  -3 -10 134594. 3621.41  15
  -4  -3 -10 136369. 4330.35   9
  -4  -3  -9 1692.17 563.455   9
   4   3  -9 1917.20 512.639   5
   4  -3  -9 1159.24 505.498   9
  -4   3  -9 1831.20 678.825   8
   4  -3  -9 1650.63 478.155  15
  -4  -3  -8 128598. 4487.26   9
   4   3  -8 136413. 4185.59   5
  -4   3  -8 147642. 5381.69   8
   4  -3  -8 133146. 4645.74   9
   4  -3  -8 127913. 4151.22  15
  -4  -3  -8 134105. 5402.98   3
   4  -3  -7 8630.45 1228.58   9
  -4  -3  -7 7377.51 1084.17   9
  -4  -3  -7 9422.71 1285.13  13
  -4   3  -7 9631.26 1358.12   8
   4  -3  -7 8514.56 1086.76  15
  -4  -3  -7 8473.17 1505.41   3
  -4  -3  -6 215993. 6450.16   3
   4  -3  -6 210361. 5668.38   9
  -4  -3  -6 216868. 5818.45  13
  -4   3  -6 221107. 6186.76   8
   4  -3  -5 119.473 205.215  17
  -4  -3  -5 246.974 271.187  13
   4  -3  -4 207384. 5960.30  17
  -4  -3  -4 213105. 5191.51  13
   4  -3  -3 7674.91 1121.15  17
  -4  -3  -3 5402.41 970.849  16
  -4  -3  -2 424604. 7911.13  16
   4  -3  -2 402642. 7468.53  17
   4  -3  -1 5364.69 860.589  17
  -4  -3  -1 5038.20 845.916  16
  -4  -3   0 148428. 4273.98  16
  -4  -3   1 5410.84 829.871  16
   4  -3   2 402315. 5989.41  19
  -4  -3   2 435705. 7284.47  16
  -4  -3   3 6267.22 905.201  16
   4  -3   3 6069.85 763.598  19
   4  -3   4 197470. 4351.22  19
  -4  -3   4 208053. 3851.22  19
  -4  -3   4 209372. 5139.19  16
  -4  -3   5 283.829 203.798  19
   4  -3   5 2561.62 546.881  19
   4  -3   6 211255. 4895.67  19
   4  -3   6 230548. 6777.55  10
  -4  -3   6 220846. 5858.63   6
   4  -3   6 221874. 6244.94   6
  -4  -3   6 207713. 4546.42  19
  -4  -3   7 7510.97 935.611  19
   4  -3   7 8635.08 1262.91   6
  -4  -3   7 7559.49 1144.26   6
   4  -3   7 8935.13 1401.81  10
   4  -3   8 141035. 5198.95   6
  -4  -3   8 141046. 4927.86   6
   4  -3   8 130077. 5506.04  10
  -4  -3   9 2056.03 636.404   6
   4  -3   9 1710.48 662.954   6
  -4   3  10 136655. 3633.36   7
  -4  -3  10 133955. 4373.90   6
   4  -3  10 134386. 4703.33   6
  -4   3  11 1603.58 366.013   7
   4  -3  11 1542.97 518.955   6
   4  -3  12 84607.5 2814.07   6
  -4  -3  12 79449.0 2240.10  11
   4   4 -11 1176.79 231.205   5
   4  -4 -11 736.948 270.235   9
  -4  -4 -11 1372.92 272.927   2
  -4   4 -11 1092.61 300.707   5
  -4  -4 -10 28983.5 1507.75   2
   4  -4 -10 28666.1 1763.90   9
   4   4 -10 26891.0 1322.56   5
  -4  -4  -9 3298.26 673.385   9
   4  -4  -9 2211.54 504.315  15
   4  -4  -9 2168.36 647.001   9
   4   4  -9 2411.85 470.115   5
  -4  -4  -9 2744.74 604.921   2
  -4  -4  -8 39674.7 2265.29   9
   4   4  -8 41232.6 2030.22   5
  -4   4  -8 40805.6 2597.54   8
   4  -4  -8 39383.6 2204.46  15
  -4  -4  -8 41614.0 2345.30   2
   4  -4  -8 38825.8 2514.19   9
  -4  -4  -7 12545.9 1375.19   9
   4  -4  -7 13398.3 1383.10  15
  -4  -4  -7 13848.4 1453.83   2
   4   4  -7 13031.9 1191.60   5
  -4   4  -7 13345.8 1544.33   8
  -4  -4  -7 12244.0 1642.37   3
   4  -4  -7 12421.4 1490.10   9
  -4   4  -6 98959.5 4175.81   8
   4  -4  -6 97920.3 3780.66  15
  -4  -4  -6 101602. 3904.93   2
   4  -4  -6 100880. 4270.13   9
  -4  -4  -6 98523.0 4378.32   3
   4  -4  -5 4442.99 956.855   9
   4  -4  -5 4888.49 867.371  15
  -4  -4  -5 5747.35 1304.38   3
  -4   4  -5 5086.83 966.950   8
  -4  -4  -5 4231.48 833.853   2
  -4  -4  -4 118292. 4618.61   3
   4  -4  -4 115752. 4851.01  17
  -4  -4  -4 121645. 4243.08   2
   4  -4  -4 118496. 4087.60  15
   4  -4  -4 117973. 4671.99   9
  -4  -4  -3 11470.2 1333.19   2
   4  -4  -3 11619.8 1499.53  17
  -4  -4  -3 10015.0 1463.65  16
   4  -4  -3 11783.7 1524.68   9
   4  -4  -3 11293.0 1246.28  15
  -4  -4  -3 11025.9 1410.09   3
  -4  -4  -3 9641.19 1089.55  12
  -4  -4  -2 84625.8 3497.50   2
   4  -4  -2 75315.5 3712.33  17
   4  -4  -2 86861.2 3354.13  15
  -4  -4  -2 80984.6 3955.30  16
  -4  -4  -2 78139.1 3057.00  12
   4  -4  -2 87318.9 4007.64   9
  -4  -4  -1 1907.65 562.422   2
   4  -4  -1 2980.81 702.095   9
   4  -4  -1 2338.90 640.387  17
   4  -4  -1 3451.63 660.727  15
  -4  -4  -1 3685.01 668.592  12
  -4  -4  -1 2745.25 721.538  16
   4  -4   0 268025. 6999.42   9
   4  -4   0 242654. 6202.34  17
  -4  -4   0 257305. 6630.00  16
  -4  -4   0 272114. 5719.37  12
   4  -4   0 273330. 6583.31  10
  -4  -4   0 247490. 5957.17   2
  -4  -4   1 2906.04 702.371   2
   4  -4   1 3609.60 769.741  17
  -4  -4   1 2771.80 706.828  16
  -4  -4   1 2671.97 588.605  12
  -4  -4   1 4059.88 725.670   1
   4  -4   1 3781.50 799.124  10
   4  -4   1 3168.32 851.815   9
  -4  -4   2 82892.4 3765.41  16
  -4  -4   2 79569.9 3150.56   1
   4  -4   2 78090.7 4077.99   9
   4  -4   2 84415.6 3844.13  10
  -4  -4   2 84201.7 3216.99  12
   4  -4   3 9468.22 1491.01   9
  -4  -4   3 13426.0 1570.22  16
  -4  -4   3 11788.5 1223.95  12
   4  -4   3 12200.2 1495.31  10
   4  -4   4 122841. 4409.37   6
  -4  -4   4 123484. 3903.85  12
   4  -4   4 130795. 5026.87  10
  -4  -4   5 4636.95 851.644   6
   4  -4   5 5426.54 1091.13  10
  -4  -4   5 4607.94 767.265  12
   4  -4   5 4707.34 930.859   6
   4  -4   6 96383.5 4129.01   6
  -4  -4   6 97911.6 3392.34  12
  -4  -4   6 104031. 3899.73   6
   4  -4   6 100398. 4657.81  10
   4  -4   7 13341.8 1521.88   6
  -4  -4   7 12129.3 1350.16   6
  -4  -4   7 13391.0 1187.77  12
   4  -4   7 14420.2 1793.96  10
   4  -4   8 48061.4 2778.93   6
   4  -4   8 40969.5 2965.07  10
  -4  -4   8 49619.6 2633.50   6
   4  -4   9 2509.74 614.950   6
  -4  -4   9 2770.67 615.900   6
   4  -4  10 28815.8 1804.56   6
  -4  -4  11 981.474 257.903  11
   4  -4  11 1264.61 338.615   6
  -4   5  -9 42.6777 108.547   5
   4  -5  -9 64.9330 189.372   9
  -4  -5  -9-345.858 150.967   2
  -4  -5  -8 9691.05 811.404   1
  -4  -5  -8 10352.4 884.884   2
   4  -5  -8 10013.6 1003.17   9
  -4  -5  -7 7864.93 891.416   2
  -4  -5  -7 7228.65 830.111   1
   4  -5  -7 7623.16 981.458   9
   4  -5  -6 5446.54 852.275  15
  -4  -5  -6 6010.29 859.122   1
  -4   5  -6 6634.59 888.359   8
   4  -5  -6 6482.75 1023.83   9
  -4  -5  -6 5683.63 835.152   2
  -4   5  -5 7029.67 983.725   8
   4  -5  -5 6923.73 964.294  15
  -4  -5  -5 6910.65 948.921   1
   4  -5  -5 8150.96 1164.80   9
  -4  -5  -5 7045.72 999.742   2
  -4   5  -4 2827.24 635.371   8
   4  -5  -4 3627.16 735.074  15
   4  -5  -4 3706.78 875.107   9
  -4  -5  -4 3734.71 766.747   2
  -4  -5  -4 3528.35 745.785   1
   4  -5  -3 7276.22 1169.62   9
  -4   5  -3 6295.16 955.603   8
  -4  -5  -3 7697.06 1069.02   1
   4  -5  -3 7345.77 998.510  15
  -4  -5  -3 5950.65 960.374   2
  -4  -5  -3 7381.46 937.092  12
  -4  -5  -2 10346.1 1263.51   2
  -4   5  -2 11304.8 1268.10   8
   4  -5  -2 9736.18 1145.68  15
   4  -5  -2 9804.95 1372.39   9
  -4  -5  -2 9827.76 1112.71  12
  -4  -5  -2 10745.0 1260.26   1
   4  -5  -2 9754.72 1186.49  10
   4  -5  -1 6664.70 1173.94   9
  -4  -5  -1 6584.99 994.027   1
  -4  -5  -1 6530.78 909.079  12
  -4  -5  -1 5779.84 965.907   2
   4  -5  -1 6841.57 1074.08  10
  -4  -5   0 12214.1 1279.21  12
  -4  -5   0 12700.5 1340.16   1
   4  -5   0 12382.9 1449.44  10
   4  -5   0 12932.9 1607.67   9
   4  -5   1 6421.49 1182.14   9
  -4  -5   1 6045.14 922.827   1
  -4  -5   1 5688.99 900.966  12
   4  -5   1 6272.99 1093.60  10
  -4  -5   2 10168.6 1176.36   1
   4  -5   2 9622.55 1419.86   9
  -4  -5   2 10399.7 1173.14  12
   4  -5   2 9692.73 1341.89  10
   4  -5   3 6299.70 1135.91   9
  -4  -5   3 6658.88 932.628  12
   4  -5   3 6687.13 1130.17  10
  -4  -5   4 2590.52 603.716  12
   4  -5   4 2879.37 749.519  10
  -4  -5   5 6458.34 861.447  12
   4  -5   5 7355.71 1161.07  10
  -4  -5   6 4927.21 696.930  12
   4  -5   6 4626.06 727.028   6
   4  -5   6 4869.91 940.991  10
   4  -5   7 7695.91 850.349   6
  -4  -5   7 7075.94 734.370  12
   4  -5   8 10537.4 899.741   6
  -4  -5   8 9933.79 799.577  11
  -4  -5   8 9788.07 685.147  12
   4  -5   9-54.5489 90.8432  12
  -4  -5   9 228.137 144.142  11
   4  -6  -6 37643.7 1290.09   1
  -4  -6  -6 48324.5 1470.16   1
   4  -6  -5 1119.63 294.918   9
  -4  -6  -5 1324.24 328.107   1
  -4  -6  -4 46477.3 1876.54   1
   4  -6  -4 43397.3 1897.43   9
   4  -6  -3 2040.15 514.895   9
  -4  -6  -3 2424.81 474.676   1
   4  -6  -2 71966.6 2758.05   9
  -4  -6  -2 75115.8 2578.48   1
   4  -6  -2 75554.9 2264.27   1
   4  -6  -1-162.787 419.483   9
  -4  -6  -1 680.329 292.803   1
  -4  -6  -1 514.234 264.844  12
  -4  -6   0 170104. 3753.83  12
  -4  -6   0 163990. 3743.41   1
   4  -6   0 166801. 4319.48   9
  -4  -6   1 902.134 329.589  12
   4  -6   1 1254.02 395.447  10
  -4  -6   2 76496.6 2494.52  12
   4  -6   2 75029.1 2733.13  10
   4  -6   2 72157.8 2225.21  12
  -4  -6   3 2231.02 445.020  12
   4  -6   3 2642.35 444.591  12
   4  -6   3 2737.74 540.571  10
  -4  -6   4 50446.7 1831.47  12
   4  -6   4 49752.5 2144.47  10
   4  -6   4 50295.5 1770.34  12
  -4  -6   5 1261.72 275.479  12
   4  -6   5 1782.98 337.266  12
   4  -6   6 49271.4 1381.67  12
  -5   0 -14 368.826 253.254   9
  -5   0 -14 450.607 193.093   4
   5   0 -13-226.348 218.242   5
  -5   0 -13 184.395 249.702  14
  -5   0 -13-30.2341 214.216   4
   5   0 -12 401.113 260.043   5
  -5   0 -12 428.735 448.796  14
   5   0 -12 353.351 251.228   9
  -5   0 -12 176.079 386.584   4
  -5   0 -11 217.778 445.184  14
  -5   0 -11 146.135 314.660   4
   5   0 -11-172.488 266.173   5
   5   0 -10 541.521 385.063   5
  -5   0 -10 460.849 380.767   4
  -5   0  -9 24.4786 296.950   4
   5   0  -9-39.5373 129.178   4
   5   0  -9 581.584 325.311   5
  -5   0  -3 176.407 137.347  18
   5   0  -2 78.8546 135.219  17
  -5   0  -2 60.9827 121.492  13
  -5   0  -2 56.0477 121.128  18
  -5   0  -1 68.7785 104.711  13
  -5   0  -1 15.5444 128.505  18
  -5   0   0 408.578 166.958  18
  -5   0   0 297.062 117.296  16
  -5   0   1 719.496 143.980  16
  -5   0   1 22.4930 123.812  18
  -5   0   2 8.93995 129.324  18
   5   0   2 50.2950 93.2728  19
  -5   0   3-50.1171 140.077  18
   5   0   3 70.6044 100.300  19
  -5   0   4 207.747 198.806  19
   5   0   4 13.3996 100.906  19
  -5   0   5-48.7228 191.873  19
   5   0   5 4.40242 84.6642  19
   5   0   6 246.497 164.514  19
  -5   0   6 368.458 267.703  19
   5   0   7 174.695 121.120  19
  -5   0   7 114.535 179.843  19
   5   0   8-62.6830 110.524  19
  -5   0   8 496.356 295.309  19
  -5   0   9 215.629 168.318  19
  -5   0  14 278.554 190.953   7
  -5  -1 -14 35187.3 1371.07   9
  -5  -1 -13 7258.26 876.849   9
  -5  -1 -13 8169.59 814.439   4
   5  -1 -13 8052.93 728.489   9
  -5   1 -13 7365.98 754.330   4
  -5   1 -13 7907.17 933.707  14
   5   1 -13 7520.25 785.076   5
   5  -1 -12 99739.6 3095.55   9
  -5  -1 -12 101664. 3382.35   4
  -5  -1 -12 97473.4 3527.81  14
  -5   1 -12 96063.0 3146.30   4
   5  -1 -12 100466. 3041.08   5
   5   1 -12 96942.0 3195.37   5
  -5  -1 -11 5986.55 1011.38  14
   5  -1 -11 7021.40 960.472   9
  -5   1 -11 6263.24 928.531   4
   5   1 -11 6597.49 937.499   5
   5  -1 -11 6964.76 924.262   5
  -5  -1 -11 6683.26 987.759   4
  -5  -1 -10 68717.4 3266.54   4
   5  -1 -10 67935.1 2979.96   9
  -5   1 -10 65884.0 3062.66   4
  -5  -1 -10 64147.1 3338.82  14
   5  -1 -10 65847.3 2939.12   5
   5   1 -10 70125.4 3039.91   5
   5   1  -9 9851.41 1162.99   5
   5  -1  -9 9111.11 1102.48   9
  -5  -1  -9 9809.30 1316.53  13
  -5   1  -9 8967.36 1160.28   4
  -5  -1  -9 9832.65 1355.48  14
  -5  -1  -9 9350.11 1213.89   4
   5  -1  -9 10141.9 1161.48   5
   5   1  -8 200264. 4993.50   5
  -5  -1  -8 183652. 5374.13  14
  -5  -1  -8 190597. 5184.42   4
  -5  -1  -8 186479. 5220.55  13
  -5  -1  -7 3086.84 654.313  13
  -5  -1  -6 200264. 4551.86  13
  -5  -1  -5 32061.6 1686.43  13
  -5  -1  -5 31558.8 1126.70  18
  -5  -1  -4 254878. 3021.15  18
  -5  -1  -4 255739. 4325.97  13
   5  -1  -4 250663. 4906.26  17
   5  -1  -3 27366.8 1502.32  17
  -5  -1  -3 28201.1 1344.38  13
   5  -1  -3 30695.1 934.533  13
  -5  -1  -3 29925.7 1001.42  18
   5  -1  -2 755035. 7140.12  17
  -5  -1  -2 766205. 4967.75  18
   5  -1  -1 47586.6 1668.70  17
  -5  -1  -1 40497.6 1132.88  18
  -5   1  -1 37671.0 1143.09  18
  -5  -1  -1 42749.3 1529.14  16
  -5  -1  -1 45160.7 1441.52  13
  -5  -1   0 699699. 5778.86  16
  -5  -1   0 710301. 4902.39  18
   5  -1   1 39552.8 1355.85  19
  -5   1   1 43856.8 1291.96  18
  -5  -1   1 40342.0 1250.91  18
  -5  -1   1 41030.1 1352.95  16
  -5  -1   1 43465.9 1187.30  19
   5  -1   2 788771. 5815.70  19
  -5  -1   2 779996. 5623.46  19
   5  -1   3 29501.7 1175.26  19
  -5  -1   3 28000.7 1215.77  19
  -5   1   3 29034.1 1069.82  18
  -5  -1   4 237619. 3911.12  19
   5  -1   4 257396. 3655.10  19
   5  -1   5 31594.8 1356.07  19
  -5  -1   5 32353.4 1587.09  19
  -5   1   5 29418.6 1584.69  19
  -5  -1   6 209289. 4447.33  19
   5  -1   6 204886. 3701.71  19
  -5   1   6 198347. 4274.37  19
   5  -1   7 3189.06 508.691  19
  -5  -1   7 3535.71 644.674  19
  -5   1   7 3257.75 600.066  19
  -5  -1   8 206455. 5127.38  19
   5  -1   8 198705. 4301.57  19
  -5   1   8 191529. 4767.63  19
  -5   1   9 9837.65 1128.79  19
  -5  -1   9 11336.0 1250.94  19
   5  -1   9 10564.4 1078.08  19
   5  -1   9 10766.3 1385.57   6
  -5  -1   9 10360.5 1311.89   6
   5  -1  10 67183.4 3297.05   6
  -5  -1  10 61688.2 2679.42  11
  -5   1  14 27699.1 1137.64   7
   5   2 -13 320.568 198.142   5
   5  -2 -13 431.369 185.579   9
  -5  -2 -13 474.260 244.539   9
  -5   2 -13 171.401 203.418  14
  -5  -2 -13 353.504 198.958   2
   5  -2 -12 88655.3 2884.17   9
  -5   2 -12 77465.7 2728.20   5
  -5  -2 -12 85522.0 2990.95   9
  -5  -2 -12 89359.6 2538.93   4
  -5   2 -12 87864.5 2342.30   4
   5   2 -12 81471.1 2683.50   5
  -5  -2 -11 1380.86 502.271   9
  -5   2 -11 1677.35 412.328   4
   5  -2 -11 2114.55 561.392   9
   5   2 -11 1460.86 459.261   5
  -5   2 -11 1339.94 480.312   5
  -5  -2 -11 1711.41 445.792   4
   5  -2 -10 115914. 4001.59   9
  -5  -2 -10 105654. 4000.74   9
  -5  -2 -10 113963. 3780.54   4
   5   2 -10 109428. 3743.29   5
  -5   2 -10 108171. 3332.75   4
  -5  -2 -10 115337. 4223.08  14
   5   2  -9 29515.5 1994.64   5
   5  -2  -9 29704.4 2063.97   9
   5  -2  -9 31723.4 1952.43   5
  -5   2  -9 29777.4 1829.66   4
  -5  -2  -9 31377.0 2263.32  14
  -5   2  -9 29363.6 2449.99   8
  -5  -2  -9 30810.5 2059.74   4
   5  -2  -8 282200. 6259.74   9
   5   2  -8 277309. 6037.26   5
  -5   2  -8 289626. 7515.06   8
  -5  -2  -8 291884. 8064.89   3
  -5  -2  -8 269588. 6557.49  14
  -5  -2  -8 263969. 6742.86  13
  -5  -2  -8 260092. 5919.64   4
   5  -2  -8 270355. 5696.76   5
  -5   2  -7 17205.0 1763.55   8
  -5  -2  -7 16476.8 1574.88  14
  -5  -2  -7 13473.7 1465.20  13
  -5  -2  -7 18025.5 2007.68   3
  -5  -2  -6 172940. 4877.92  13
  -5  -2  -5 3505.73 674.169  13
   5  -2  -5 3828.08 798.870  17
   5  -2  -4 299494. 6464.22  17
  -5  -2  -4 325959. 5843.28  13
   5  -2  -3 18225.0 1512.21  17
  -5  -2  -3 19454.6 1530.10  16
  -5  -2  -3 22636.8 1482.01  13
  -5  -2  -2 358593. 6007.54  16
  -5  -2  -2 358523. 5221.39  13
   5  -2  -1 120414. 3362.75  17
  -5  -2  -1 105166. 3025.86  16
  -5   2   0 330757. 3693.81  18
  -5  -2   0 354500. 5354.77  16
  -5   2   1 108074. 2108.28  18
   5  -2   1 109093. 1883.83  16
  -5  -2   1 110015. 1780.95  19
  -5  -2   1 106472. 2916.72  16
  -5  -2   2 331529. 5020.68  16
  -5  -2   2 339463. 3762.74  19
  -5   2   2 329933. 3620.24  18
   5  -2   3 20918.4 1191.24  19
  -5  -2   3 21202.7 1080.72  19
  -5  -2   4 326682. 4711.94  19
   5  -2   4 328832. 4916.68  19
  -5  -2   5 3398.11 545.534  19
   5  -2   5 3819.15 574.575  19
  -5   2   5 3564.98 598.186  19
  -5  -2   6 170408. 4132.34  19
  -5   2   6 177671. 4142.69  19
   5  -2   6 176738. 4038.65  19
  -5  -2   7 13870.0 1287.55  19
   5  -2   7 14540.5 1236.43  19
  -5  -2   7 14548.2 1501.00   6
   5  -2   7 14650.8 1603.86   6
  -5   2   7 13406.1 1200.48  19
  -5  -2   8 287656. 6149.41  19
  -5  -2   8 303878. 7124.53   6
   5  -2   8 280690. 7263.63   6
   5  -2   8 314509. 6098.69  19
  -5  -2   9 32431.6 2364.13   6
   5  -2   9 30834.0 2454.82   6
   5  -2  10 116220. 4671.82   6
  -5  -2  10 116264. 4368.33   6
   5  -2  11 1222.34 519.575   6
  -5  -2  11 1547.62 475.645  11
   5  -2  12 86229.6 3206.12   6
  -5  -2  12 82161.1 2494.46  11
  -5   2  13 412.976 181.697   7
  -5   3 -12 4875.74 603.688   5
   5  -3 -12 4421.71 585.283   9
  -5  -3 -12 5197.49 589.192   2
   5   3 -12 5135.44 560.946   5
   5  -3 -11 471.193 315.527   9
  -5  -3 -11 64.9182 254.042   9
   5   3 -11 43.7486 200.886   5
  -5  -3 -11 412.800 315.453   2
   5   3 -10 39198.4 2030.43   5
  -5  -3 -10 39923.6 2206.38   9
   5  -3 -10 39276.0 2317.72   9
  -5  -3 -10 40463.7 2245.10   2
   5  -3 -10 36953.0 1935.87  15
   5  -3  -9 7454.34 1111.88   9
  -5  -3  -9 7266.02 1027.12   9
  -5   3  -9 7464.93 1250.65   8
   5   3  -9 7826.63 991.063   5
   5  -3  -9 7512.49 979.070  15
   5  -3  -8 20022.2 1803.59   9
  -5  -3  -8 20805.9 1758.55   9
   5   3  -8 21210.6 1654.87   5
  -5   3  -8 21380.9 2132.55   8
   5  -3  -8 20645.9 1685.97  15
  -5  -3  -8 21899.2 2353.48   3
   5  -3  -7 15034.7 1583.08   9
  -5  -3  -7 14252.4 1436.73   9
   5   3  -7 14312.8 1328.97   5
  -5   3  -7 14209.3 1718.67   8
  -5  -3  -7 16861.2 2123.04   3
   5  -3  -6 4143.82 865.630   9
  -5   3  -6 4121.56 904.932   8
  -5  -3  -6 4203.12 1232.78   3
  -5  -3  -6 3474.80 755.562  13
   5  -3  -5 13642.1 1465.53   9
  -5  -3  -5 15049.0 1705.09   3
  -5  -3  -5 12048.8 1318.62  13
   5  -3  -5 11774.9 1576.45  17
  -5  -3  -4-579.182 387.539  16
   5  -3  -4 96.7564 291.976  17
  -5  -3  -4-587.999 334.599  13
  -5  -3  -3 13985.4 1549.91  16
   5  -3  -3 12980.5 1520.35  17
   5  -3  -2 6283.97 1004.69  17
  -5  -3  -2 6221.60 996.397  16
  -5  -3  -1-55.6850 244.582  16
   5  -3  -1 93.7576 223.572  17
  -5   3  -1-64.2081 109.123  18
  -5  -3   0 26671.5 1830.01  16
  -5  -3   1-104.518 230.907  16
   5  -3   2 5208.65 753.837  19
  -5  -3   2 4595.18 805.915  16
   5  -3   3 13551.7 1200.71  19
  -5  -3   3 13078.0 1320.10  16
  -5  -3   4 206.852 232.038  16
   5  -3   4 572.245 323.900  19
   5  -3   5 13705.9 1258.58  19
  -5  -3   5 12550.6 1324.76  16
   5  -3   5 12837.7 1494.44   6
  -5  -3   6 3860.28 660.911  19
   5  -3   6 4013.67 722.905  19
  -5  -3   6 4089.75 801.988   6
   5  -3   6 3899.29 866.397   6
   5  -3   6 4523.98 1020.05  10
  -5  -3   7 14763.5 1590.51   6
   5  -3   7 15421.0 1756.44   6
   5  -3   7 14925.8 1897.32  10
  -5   3   8 22156.9 1711.45   7
  -5  -3   8 20913.4 1908.95   6
   5  -3   8 15605.8 1935.50  10
   5  -3   8 18668.4 1925.27   6
   5  -3   9 7907.06 1252.78   6
  -5   3   9 9115.37 1064.57   7
  -5  -3   9 8247.25 1173.52   6
  -5   3  10 35901.7 1893.04   7
  -5  -3  10 39000.2 2365.17   6
   5  -3  10 39676.1 2592.12   6
  -5   3  11 287.829 181.473   7
   5  -3  11 494.691 323.400   6
  -5  -3  11-64.3287 211.120  11
   5  -3  12 4942.77 680.460   6
  -5  -3  12 4503.86 523.424  11
   5  -4 -11 1172.15 283.409   9
  -5  -4 -11 1478.09 268.973   2
  -5   4 -11 1475.23 313.930   5
  -5  -4 -10 34497.1 1622.39   2
   5  -4 -10 32656.9 1789.58   9
   5   4 -10 33611.3 1369.60   5
   5  -4  -9 326.369 381.238   9
   5   4  -9 65.5370 116.007   5
  -5  -4  -9 308.768 338.167   2
   5  -4  -9 202.888 211.688  15
   5   4  -8 70450.9 2527.37   5
  -5   4  -8 71822.7 3486.29   8
   5  -4  -8 71280.0 2969.04  15
  -5  -4  -8 74553.5 3102.22   2
  -5  -4  -8 73009.5 2725.87   1
   5  -4  -8 70512.1 3283.10   9
   5   4  -7 9424.41 976.640   5
  -5   4  -7 11157.5 1434.33   8
  -5  -4  -7 9783.95 1239.45   2
  -5  -4  -7 8773.47 1056.29   1
  -5  -4  -7 7804.72 1416.68   3
   5  -4  -7 8866.03 1141.99  15
   5  -4  -7 10337.8 1351.28   9
  -5   4  -6 50342.2 3039.43   8
  -5  -4  -6 51902.4 2797.87   2
   5  -4  -6 48866.5 2700.82  15
  -5  -4  -6 53573.6 3367.95   3
   5  -4  -6 49459.9 2960.16   9
   5  -4  -5 1031.70 554.690   9
   5  -4  -5 38.7953 268.212  15
  -5   4  -5-159.980 327.021   8
  -5  -4  -5 196.322 332.602   2
  -5  -4  -4 150152. 5369.15   3
  -5  -4  -4 163428. 4937.61   2
   5  -4  -4 157615. 4761.97  15
  -5  -4  -3 32539.4 2455.94   3
  -5  -4  -3 30393.8 1962.02  12
   5  -4  -3 33564.4 2171.95  15
   5  -4  -3 28342.7 2442.33  17
  -5  -4  -3 30116.7 2512.72  16
  -5  -4  -3 35177.2 2272.22   2
   5  -4  -3 34650.0 2541.19   9
  -5  -4  -2 106272. 3945.17   2
  -5  -4  -2 108482. 4321.87   3
   5  -4  -2 106205. 4533.97  17
  -5  -4  -2 108660. 4618.21  16
   5  -4  -2 112301. 3867.98  15
  -5  -4  -2 107381. 3659.56  12
   5  -4  -2 114962. 4561.41   9
   5  -4  -1 4310.80 953.080  17
   5  -4  -1 5204.38 824.167  15
   5  -4  -1 4405.76 914.771   9
  -5  -4  -1 4724.02 782.813  12
  -5  -4  -1 3982.19 890.739  16
  -5  -4  -1 5119.13 865.595   1
  -5  -4  -1 4020.18 811.218   2
   5  -4   0 181620. 5508.04  17
   5  -4   0 204465. 5925.56  10
  -5  -4   0 190860. 5741.69  16
  -5  -4   0 191838. 5093.97   1
  -5  -4   0 192684. 4955.65  12
  -5  -4   0 178000. 5046.04   2
   5  -4   0 192510. 5894.74   9
  -5  -4   1 4579.23 841.721   2
  -5  -4   1 5307.00 973.269  16
  -5  -4   1 4793.12 818.093   1
   5  -4   1 5403.76 956.941  17
  -5  -4   1 4661.31 782.460  12
   5  -4   1 4030.93 918.276   9
   5  -4   1 4503.96 955.408  10
  -5  -4   2 124270. 4622.23  16
  -5  -4   2 120557. 3920.21  12
  -5  -4   2 115244. 3904.23   1
   5  -4   2 124773. 4825.90  10
   5  -4   2 122308. 5055.87   9
  -5  -4   3 34539.1 2478.64  16
  -5  -4   3 34233.3 2090.87  12
   5  -4   3 35717.8 2627.70  10
   5  -4   3 31645.5 2662.70   9
  -5  -4   4 146042. 4280.20  12
   5  -4   4 150342. 5005.23   6
   5  -4   4 156750. 5657.85  10
   5  -4   4 142129. 5729.72   9
  -5  -4   5 567.521 257.856  12
  -5  -4   5 282.758 209.770   6
   5  -4   5 385.972 305.404   6
   5  -4   5 275.933 431.916  10
  -5  -4   6 58815.5 2931.55   6
  -5  -4   6 58851.6 2613.63  12
   5  -4   6 57419.4 3583.28  10
   5  -4   6 58350.6 3231.16   6
  -5  -4   7 9594.53 994.226  12
  -5  -4   7 9734.08 1187.71   6
   5  -4   7 9545.44 1323.59   6
   5  -4   7 7891.72 1349.71  10
  -5  -4   8 67400.6 3039.51   6
   5  -4   8 69996.1 3369.31   6
   5  -4   8 60383.3 3542.85  10
   5  -4   9 201.682 310.204   6
  -5  -4  10 30064.0 1507.28  11
   5  -4  10 31037.3 1833.97   6
  -5  -4  11 1283.51 277.507  11
   5  -4  11 1444.53 349.937   6
  -5  -5  -9-121.289 111.090   2
  -5   5  -9 69.1550 88.4701   5
  -5  -5  -8 65798.4 2128.21   2
   5  -5  -8 64553.5 2352.61   9
   5  -5  -7 1501.90 445.654  15
  -5  -5  -7 1402.73 434.446   2
   5  -5  -7 1663.35 549.353   9
  -5   5  -7 1213.44 392.121   8
  -5  -5  -7 1395.97 391.449   1
  -5   5  -6 133709. 3993.84   8
   5  -5  -6 136056. 3885.31  15
  -5  -5  -6 138335. 3834.41   1
   5  -5  -6 135951. 4221.89   9
  -5  -5  -6 140964. 3853.92   2
  -5   5  -5 8510.60 1083.49   8
   5  -5  -5 9391.90 1101.29  15
  -5  -5  -5 8114.13 1226.08   3
  -5  -5  -5 9223.47 1084.32   1
   5  -5  -5 9145.38 1200.56   9
  -5  -5  -5 10072.7 1136.78   2
  -5   5  -4 81266.1 3345.12   8
   5  -5  -4 79298.0 3169.56  15
  -5  -5  -4 82362.4 3266.19   2
   5  -5  -4 84232.1 3672.37   9
  -5  -5  -4 75806.1 3321.42   3
  -5  -5  -4 81629.4 3273.12   1
   5  -5  -3 607.663 407.037  15
  -5  -5  -3 599.051 475.192   2
  -5  -5  -3 410.110 255.292  12
  -5   5  -3 131.167 258.405   8
   5  -5  -3 237.002 407.679   9
   5  -5  -3 284.253 269.280  10
  -5  -5  -3 24.6400 272.112   1
   5  -5  -2 125880. 3969.45  15
   5  -5  -2 120870. 4298.42  10
  -5  -5  -2 120323. 4123.40   2
  -5  -5  -2 121139. 4140.81   1
  -5  -5  -2 121336. 3873.05  12
   5  -5  -2 124740. 4716.28   9
  -5  -5  -1 1262.11 510.416   2
  -5  -5  -1 1122.34 450.559   1
   5  -5  -1 1221.27 438.298  15
  -5  -5  -1 976.678 380.024  12
   5  -5  -1 1480.28 558.291  10
   5  -5  -1 1430.12 631.217   9
   5  -5   0 43031.7 2722.28  10
  -5  -5   0 41943.1 2439.73   1
  -5  -5   0 41377.4 2335.79  12
   5  -5   0 45553.2 2958.44   9
   5  -5   1 1696.63 672.508   9
  -5  -5   1 1229.27 445.493   1
  -5  -5   1 1315.79 473.349  12
   5  -5   1 1025.49 504.519  10
  -5  -5   2 110635. 3794.79   1
  -5  -5   2 116400. 3877.73  12
   5  -5   2 118187. 4644.17  10
   5  -5   2 116306. 4762.66   9
   5  -5   3 942.730 534.292   9
  -5  -5   3-37.7351 264.549  12
   5  -5   3 530.517 403.782  10
  -5  -5   4 83511.5 3110.51  12
   5  -5   4 85653.1 3973.75  10
  -5  -5   5 9172.47 1005.63  12
   5  -5   5 8629.19 1280.27  10
   5  -5   6 127999. 3605.52   6
  -5  -5   6 130347. 3417.66  12
  -5  -5   6 121072. 3035.34  11
   5  -5   6 127569. 4596.49  10
  -5  -5   7 1562.39 339.301  12
   5  -5   7 1704.15 438.735   6
  -5  -5   7 1595.43 363.605  11
   5  -5   8 59235.2 2028.87   6
  -5  -5   8 58923.6 1797.83  11
  -5  -6  -5 2545.42 405.716   1
   5  -6  -5 2477.23 428.490   9
  -5  -6  -4 5699.23 646.968   1
   5  -6  -4 5349.95 674.515   9
   5  -6  -3 294.976 260.269   9
  -5  -6  -3 33.7333 228.615   1
  -5  -6  -2 6051.99 736.515   1
   5  -6  -2 7110.26 890.410   9
   5  -6  -1 1254.82 447.987   9
  -5  -6  -1 1178.00 331.570  12
  -5  -6  -1 1320.08 382.454   1
  -5  -6   0 5582.70 687.755   1
   5  -6   0 5977.66 764.736  10
  -5  -6   0 6083.48 726.127  12
   5  -6   0 6317.00 866.850   9
  -5  -6   1 1378.01 368.844  12
   5  -6   1 1286.07 415.213  10
  -5  -6   2 6731.46 740.796  12
   5  -6   2 7447.27 871.488  10
  -5  -6   3 379.871 230.938  12
   5  -6   3 375.414 185.554  12
   5  -6   3 121.139 253.793  10
  -5  -6   4 6777.46 658.117  12
   5  -6   4 6391.43 603.708  12
   5  -6   4 6729.72 795.044  10
  -5  -6   5 2413.30 350.691  12
   5  -6   5 2777.29 367.048  12
  -6   0 -14 90953.1 2181.65   9
  -6   0 -14 85288.6 1992.06   4
  -6   0 -13 17563.2 1303.58  14
  -6   0 -13 17688.0 1251.80   4
   6   0 -13 16413.3 1088.90   5
  -6   0 -12 71586.7 3008.67   4
  -6   0 -12 71586.8 3129.02  14
   6   0 -12 65351.8 2585.62   5
  -6   0 -11 13112.4 1494.18  14
  -6   0 -11 14617.0 1522.85   4
   6   0 -11 13013.6 1290.96   5
  -6   0 -10 241051. 6365.14   4
   6   0 -10 231472. 5603.56   5
   6   0  -9 2720.24 637.062   5
  -6   0  -9 2345.49 604.348  13
  -6   0  -9 2252.50 645.400   4
  -6   0  -8 193852. 5421.88   4
   6   0  -8 204427. 4952.39   5
  -6   0  -7 23776.5 1300.07  18
  -6   0  -6 428994. 5143.69  18
  -6   0  -5 103343. 2352.99  18
  -6   0  -4 600342. 5340.60  18
  -6   0  -3 144259. 2562.29  13
  -6   0  -3 146956. 2517.01  18
  -6   0  -2 342221. 3757.40  18
   6   0  -2 355291. 4067.80  17
  -6   0  -1 2132.42 313.137  18
   6   0  -1 2116.05 295.392  17
  -6   0  -1 2047.82 249.025  13
  -6   0   0 130781. 1904.38  16
  -6   0   0 133840. 2312.70  18
  -6   0   1 1998.26 333.665  18
  -6   0   1 2073.35 239.172  16
  -6   0   2 357675. 3110.46  16
   6   0   2 362041. 3810.87  19
   6   0   3 147237. 2419.31  19
  -6   0   3 151886. 2799.27  18
  -6   0   4 594607. 6781.86  19
   6   0   4 578769. 5015.87  19
   6   0   5 104199. 2233.74  19
  -6   0   5 101300. 2962.66  19
  -6   0   6 459147. 6820.66  19
   6   0   6 447775. 4965.89  19
  -6   0   7 23498.3 1673.33  19
   6   0   7 26177.6 1301.17  19
  -6   0   8 186578. 4994.14  19
  -6   0   9 3051.05 682.269  19
  -6   0  13 15311.1 1109.99   7
  -6  -1 -13 2979.61 545.989   9
  -6   1 -13 2543.34 433.877   4
   6   1 -13 2250.82 426.789   5
  -6   1 -13 2858.00 551.844  14
  -6  -1 -13 2450.43 461.188   4
  -6   1 -12 67788.1 2640.32   4
   6  -1 -12 67308.5 2391.07   9
   6   1 -12 62212.3 2487.81   5
  -6  -1 -12 72035.0 2896.98   4
  -6  -1 -12 67613.7 2870.53  14
   6  -1 -12 68721.0 2457.56   5
   6   1 -11 2933.07 625.718   5
   6  -1 -11 2785.57 602.638   9
  -6  -1 -11 2779.63 663.190   4
  -6  -1 -11 2601.02 715.377  14
   6  -1 -11 2346.07 541.313   5
  -6   1 -11 2786.62 637.741   4
   6  -1 -10 34246.5 2079.84   9
  -6  -1 -10 33431.7 2386.29  14
  -6   1 -10 33513.6 2238.97   4
  -6  -1 -10 34905.2 2411.18   4
   6  -1 -10 32839.4 2093.47   5
   6   1 -10 32373.9 2081.36   5
   6   1  -9 1678.32 520.254   5
   6  -1  -9 1150.73 423.366   9
  -6  -1  -9 1878.56 635.970  14
   6  -1  -9 1135.19 428.372   5
  -6   1  -9 1347.56 513.553   4
  -6  -1  -9 1286.74 517.684   4
   6   1  -8 39022.8 2205.67   5
  -6  -1  -8 33839.3 2316.47  14
  -6  -1  -8 31534.8 2184.53  13
  -6   1  -8 33463.0 2186.13   4
  -6  -1  -8 35765.7 2362.16   4
  -6  -1  -8 34034.1 2646.56   3
   6  -1  -8 35502.7 2102.12   5
  -6  -1  -7 7923.50 1025.62  13
  -6  -1  -6 95327.6 3241.28  13
  -6  -1  -5 851.343 330.984  13
  -6  -1  -5 366.223 140.627  18
  -6  -1  -4 198489. 2897.48  18
  -6  -1  -4 186792. 3830.97  13
   6  -1  -3 4106.53 647.584  17
  -6  -1  -3 4579.03 588.462  13
  -6  -1  -3 4660.60 440.647  18
  -6  -1  -2 144023. 3197.26  16
  -6   1  -2 146179. 2581.44  18
  -6  -1  -2 152436. 2420.10  18
   6  -1  -2 154767. 3391.64  17
  -6  -1  -2 139877. 2797.01  13
   6  -1  -1 18135.7 1072.98  17
  -6  -1  -1 15958.7 863.454  13
  -6  -1  -1 16112.8 795.614  18
  -6  -1  -1 15804.2 970.062  16
  -6   1  -1 15356.4 811.225  18
  -6   1   0 112352. 2139.33  18
  -6  -1   0 120716. 2476.62  16
  -6  -1   0 118256. 2222.41  18
  -6  -1   1 16133.9 914.257  16
  -6   1   1 16533.1 862.992  18
  -6  -1   1 15989.5 807.010  19
  -6  -1   1 17408.9 914.567  18
  -6  -1   2 140330. 2670.54  16
   6  -1   2 144774. 2781.64  19
  -6  -1   2 144953. 2720.45  18
  -6   1   2 140648. 2627.36  18
  -6  -1   2 135205. 2595.28  19
   6  -1   3 4805.21 526.309  19
  -6   1   3 4380.42 487.410  18
  -6  -1   3 4348.56 522.658  19
  -6  -1   4 194006. 3745.82  19
   6  -1   4 200242. 3433.67  19
  -6   1   5 505.204 288.720  19
   6  -1   5 185.283 185.348  19
  -6  -1   5 384.091 246.154  19
  -6  -1   6 97422.1 3184.57  19
   6  -1   6 98068.2 2652.86  19
  -6   1   6 93784.0 3191.99  19
  -6  -1   7 8832.11 1048.55  19
   6  -1   7 8786.48 859.203  19
  -6   1   7 7838.47 996.522  19
   6  -1   8 30530.8 1726.28  19
  -6  -1   8 33474.0 2149.07  19
  -6  -1   8 36678.7 2418.83   6
   6  -1   8 26919.3 2169.32   6
  -6   1   8 29089.8 1983.76  19
  -6  -1   9 2081.53 519.593  11
   6  -1   9 2451.72 680.141   6
  -6  -1  10 31225.2 1932.61  11
   6  -1  10 32745.0 2343.46   6
  -6  -1  11 1258.06 384.161  11
  -6   1  13 2865.43 509.377   7
  -6  -2 -13 7123.55 637.598   2
  -6   2 -13 6770.24 699.097  14
   6   2 -13 7173.28 627.613   5
   6  -2 -12 12687.8 1024.65   9
  -6  -2 -12 12397.9 1065.05   9
  -6   2 -12 12994.4 852.769   4
  -6  -2 -12 13753.9 1001.16   4
   6   2 -12 11726.8 1008.87   5
   6  -2 -11 898.376 400.568   9
   6   2 -11 1864.48 487.378   5
  -6   2 -11 1512.60 367.960   4
  -6  -2 -11 1975.49 484.654   4
  -6   2 -11 1269.88 415.101   5
  -6  -2 -11 1800.69 510.860   9
   6  -2 -10 24889.8 1829.61   9
  -6  -2 -10 23846.2 1823.77   9
  -6  -2 -10 23673.8 1773.67   4
  -6  -2 -10 25017.0 1961.21  14
  -6   2 -10 24218.6 1579.53   4
   6  -2 -10 24767.0 1648.34   5
   6   2 -10 23331.6 1731.96   5
   6   2  -9 10011.8 1164.79   5
   6  -2  -9 9221.69 1154.73   9
  -6   2  -9 8968.16 1038.61   4
  -6  -2  -9 9761.31 1201.09   4
  -6  -2  -9 10480.1 1331.66  14
  -6   2  -9 9081.25 1381.02   8
   6  -2  -9 9071.90 1067.88   5
   6   2  -8 60348.0 2814.31   5
   6  -2  -8 56705.6 2814.13   9
  -6  -2  -8 54676.2 2839.93   4
  -6   2  -8 58202.3 3479.56   8
  -6  -2  -8 59007.5 3068.04  14
  -6  -2  -8 53507.2 3047.86  13
   6  -2  -8 55573.3 2632.58   5
  -6  -2  -8 57999.4 3788.21   3
  -6  -2  -7 16178.4 2041.98   3
   6  -2  -7 13963.6 1382.21   9
   6   2  -7 13753.3 1284.54   5
  -6   2  -7 14850.9 1677.13   8
  -6  -2  -7 13061.0 1359.75   4
  -6  -2  -7 13810.9 1445.36  14
   6  -2  -7 14563.8 1312.05   5
  -6  -2  -7 14178.0 1490.67  13
  -6  -2  -6 33296.1 2155.47  13
   6  -2  -5 5357.67 991.470  17
  -6  -2  -5 6923.41 939.595  13
   6  -2  -4 7437.70 1112.96  17
  -6  -2  -4 7897.40 954.116  13
   6  -2  -3 105034. 3725.23  17
  -6  -2  -3 103670. 3048.18  13
  -6  -2  -3 105907. 3559.61  16
  -6  -2  -2 289720. 4716.44  13
  -6  -2  -2 281620. 5395.15  16
   6  -2  -1 8087.02 906.505  17
  -6   2  -1 7115.43 624.798  18
  -6  -2  -1 7553.13 832.391  16
  -6   2   0 15331.5 873.776  18
  -6  -2   0 16847.4 1191.17  16
  -6   2   1 6941.91 584.181  18
  -6  -2   1 6695.16 769.461  16
  -6  -2   2 286101. 4939.22  16
  -6  -2   2 292907. 3706.37  19
   6  -2   3 106383. 2900.11  19
  -6  -2   3 104042. 3023.92  16
  -6  -2   3 103369. 2504.20  19
  -6  -2   4 6588.68 705.193  19
   6  -2   4 7190.44 788.799  19
  -6  -2   5 6115.81 758.433  19
  -6   2   5 6597.53 881.608  19
   6  -2   5 6082.92 759.352  19
  -6   2   6 34802.1 2020.45  19
   6  -2   6 31692.9 1776.81  19
  -6  -2   6 30814.5 1820.66  19
  -6  -2   7 13667.2 1315.27  19
   6  -2   7 12988.5 1212.46  19
  -6  -2   7 13625.6 1462.69   6
   6  -2   7 13655.7 1635.31   6
  -6   2   7 13652.3 1297.68  19
  -6  -2   8 61540.8 3242.81   6
   6  -2   8 61326.3 3476.02   6
  -6  -2   9 10416.7 1374.87   6
   6  -2   9 10944.8 1537.39   6
  -6  -2  10 19299.8 1581.62  11
   6  -2  10 20749.6 2027.64   6
   6  -2  11 1387.91 513.655   6
  -6  -2  11 1700.42 472.786  11
  -6   2  12 13668.4 1101.83   7
   6  -2  12 10689.0 1096.46   6
  -6  -2  12 13725.4 976.667  11
  -6   2  13 5281.33 513.315   7
  -6   3 -12 53945.9 1643.62   5
   6   3 -12 52511.2 1599.14   5
   6  -3 -12 49063.6 1645.61   9
   6  -3 -11 4272.79 667.350   9
  -6  -3 -11 4067.27 657.549   2
   6   3 -11 4149.38 578.670   5
   6  -3 -10 96756.3 3484.62   9
  -6  -3 -10 103613. 3264.18   9
  -6  -3 -10 97735.7 3372.32   2
   6  -3 -10 94834.3 3110.62  15
   6   3 -10 97163.4 3076.80   5
   6  -3  -9 378.559 385.879   9
  -6  -3  -9 519.377 312.457   9
   6   3  -9 307.196 293.997   5
   6  -3  -9 248.157 264.391  15
  -6   3  -9 247.065 422.571   8
   6  -3  -8 167114. 5097.97   9
   6   3  -8 165796. 4475.18   5
  -6   3  -8 161590. 5934.90   8
  -6  -3  -8 164955. 6378.89   3
   6   3  -7 5320.74 823.964   5
   6  -3  -7 5169.73 958.317   9
  -6   3  -7 6127.82 1169.56   8
  -6  -3  -7 7357.36 1640.18   3
   6  -3  -6 234977. 6130.90   9
  -6  -3  -6 239616. 7377.04   3
   6   3  -6 229875. 4965.38   5
  -6  -3  -6 232866. 5861.33  13
   6  -3  -5 12744.3 1445.49   9
  -6  -3  -5 14254.1 1752.73   3
   6  -3  -5 10912.9 1576.62  17
  -6  -3  -5 12090.8 1303.82  13
  -6  -3  -4 276756. 5945.04  13
   6  -3  -4 279376. 7539.84  17
   6  -3  -3 8779.82 1288.41  17
  -6  -3  -3 8194.62 1179.57  16
  -6   3  -2 218028. 4092.82  18
   6  -3  -2 225158. 5995.43  17
  -6  -3  -2 206966. 5568.33  16
  -6   3  -1 2477.70 429.816  18
   6  -3  -1 2183.48 574.420  17
  -6  -3  -1 1652.36 523.323  16
   6  -3   0 241638. 5516.11  17
  -6  -3   0 206207. 5111.83  16
  -6  -3   1 2195.45 557.634  16
  -6  -3   2 201217. 5118.10  16
   6  -3   3 7812.04 976.135  19
  -6  -3   3 7402.65 1035.54  16
   6  -3   4 284089. 5859.47  19
  -6  -3   4 259514. 6063.75  16
   6  -3   5 13512.5 1328.42  19
  -6  -3   5 12233.8 1340.11  16
  -6  -3   5 13601.2 1399.61   6
   6  -3   5 13076.1 1553.39   6
   6  -3   5 13248.8 1645.18  10
   6  -3   6 239158. 5637.71  19
  -6  -3   6 246764. 6237.25   6
  -6  -3   6 232048. 5951.00  16
   6  -3   6 245393. 6804.05   6
   6  -3   6 230200. 7163.84  10
  -6  -3   7 4939.77 939.155   6
   6  -3   7 4896.95 1017.86   6
   6  -3   7 5152.43 1119.95  10
  -6   3   8 156334. 4551.34   7
  -6  -3   8 160489. 5249.18   6
   6  -3   8 155908. 5627.82   6
  -6   3   9 456.926 328.687   7
  -6  -3   9 319.343 338.929   6
   6  -3   9-81.3405 371.795   6
  -6   3  10 85327.5 2881.69   7
  -6  -3  10 93022.1 3181.20  11
  -6   3  11 3327.93 467.202   7
   6  -3  11 4086.58 752.704   6
  -6  -3  11 3669.34 555.014  11
   6  -3  12 46683.8 1896.90   6
  -6  -3  12 52691.0 1598.57  11
  -6   4 -11 124.902 140.084   5
  -6  -4 -10 33100.0 1533.16   2
   6  -4 -10 28113.6 1354.11  15
   6   4 -10 28889.2 1144.49   5
   6  -4 -10 29195.6 1590.31   9
   6  -4  -9 980.603 419.364   9
   6   4  -9 911.486 238.628   5
   6  -4  -9 1110.20 358.669  15
  -6  -4  -9 1110.30 420.092   2
  -6   4  -8 49336.9 2887.12   8
   6  -4  -8 48043.0 2430.29  15
  -6  -4  -8 49327.2 2168.39   1
  -6  -4  -8 51403.3 2534.85   2
   6  -4  -8 46288.9 2575.26   9
   6   4  -8 53514.1 2058.81   5
  -6   4  -7 13044.2 1572.39   8
  -6  -4  -7 14794.3 1475.31   2
  -6  -4  -7 12606.7 1758.72   3
   6  -4  -7 14742.6 1458.65  15
  -6  -4  -7 15718.4 1376.67   1
   6  -4  -7 13949.6 1504.70   9
  -6   4  -6 56750.6 3282.92   8
  -6  -4  -6 61942.0 3006.59   2
  -6  -4  -6 57508.0 2799.16   1
   6  -4  -6 55805.4 2896.77  15
   6  -4  -6 53379.1 3019.62   9
  -6  -4  -6 59201.4 3634.64   3
   6  -4  -5 1097.67 490.191   9
  -6   4  -5 926.733 527.494   8
  -6  -4  -5 1332.11 432.045   1
   6  -4  -5 1290.76 499.263  15
  -6  -4  -5 1943.03 1030.44   3
  -6  -4  -5 1087.31 495.930   2
  -6  -4  -4 185013. 6127.32   3
   6  -4  -4 184579. 5207.38  15
  -6  -4  -4 186692. 5260.64   2
  -6  -4  -4 187312. 5215.76   1
  -6  -4  -4 169716. 4741.23  12
   6  -4  -4 184989. 5749.99   9
  -6  -4  -3 16398.5 1822.45   3
  -6  -4  -3 14685.1 1472.15   2
   6  -4  -3 16303.0 1546.90  15
  -6  -4  -3 15959.1 1420.67  12
  -6  -4  -3 16315.4 1554.19   1
   6  -4  -3 15883.2 1721.83   9
  -6  -4  -2 24241.0 2189.14  16
  -6  -4  -2 25036.4 1908.04   2
  -6  -4  -2 24635.5 2154.58   3
  -6  -4  -2 25500.4 1952.48   1
   6  -4  -2 23231.8 2168.80  17
   6  -4  -2 24242.8 1827.10  15
  -6  -4  -2 23848.5 1778.82  12
   6  -4  -2 24825.1 2127.30   9
  -6  -4  -1 13745.7 1405.64   2
  -6  -4  -1 16838.8 1586.40   1
   6  -4  -1 14455.2 1659.31  17
   6  -4  -1 14503.7 1377.40  15
  -6  -4  -1 14383.6 1647.48   3
  -6  -4  -1 13471.6 1364.73  12
  -6  -4  -1 16145.6 1736.76  16
   6  -4  -1 13352.8 1564.02   9
  -6  -4   0 142524. 4941.14   3
   6  -4   0 156783. 5204.53  17
  -6  -4   0 152797. 4556.20  12
  -6  -4   0 160875. 5299.00  16
  -6  -4   0 154818. 4749.69   1
   6  -4   0 163957. 5471.51  10
  -6  -4   0 147500. 4555.35   2
   6  -4   0 155184. 5281.26   9
  -6  -4   1 16148.3 1665.07  16
   6  -4   1 15386.3 1605.16  17
  -6  -4   1 13728.9 1400.53   1
  -6  -4   1 14702.3 1426.38  12
  -6  -4   1 14060.5 1414.45   2
   6  -4   1 15997.1 1737.39  10
   6  -4   1 14666.7 1684.06   9
  -6  -4   2 22388.2 1810.67   1
  -6  -4   2 24506.8 2042.69  16
  -6  -4   2 26029.5 1863.42  12
   6  -4   2 24800.4 2190.64  10
   6  -4   2 23798.8 2194.56   9
  -6  -4   3 14208.8 1441.35   1
  -6  -4   3 14905.2 1405.87  12
   6  -4   3 14055.1 1736.52  10
   6  -4   3 15721.3 1838.96   9
   6  -4   4 189789. 5696.03   6
  -6  -4   4 184116. 4830.75  12
   6  -4   4 184198. 6254.82  10
   6  -4   4 182066. 6329.79   9
   6  -4   5 1316.84 490.891   6
  -6  -4   5 1477.18 467.277  12
   6  -4   5 875.909 541.561  10
  -6  -4   6 64800.3 2723.04  12
   6  -4   6 61837.1 3360.74   6
   6  -4   6 57335.5 3572.72  10
   6  -4   7 14215.3 1612.75   6
  -6  -4   7 16111.2 1273.16  12
   6  -4   7 12228.5 1656.04  10
   6  -4   8 41209.3 2811.54  10
   6  -4   8 44817.5 2690.33   6
  -6  -4   9 823.819 330.343  11
   6  -4   9 865.968 425.459   6
   6  -4  10 31015.5 1773.58   6
  -6  -4  10 30237.3 1452.35  11
   6  -4  11 156.334 129.193   6
  -6  -4  11 307.006 157.791  11
  -6  -5  -8 6949.50 674.952   2
   6  -5  -8 7316.44 771.950   9
  -6   5  -7 95.0858 175.501   8
   6  -5  -7 51.7938 262.475   9
   6  -5  -7 287.287 245.056  15
  -6  -5  -7-349.039 251.598   1
  -6  -5  -7 497.896 319.892   2
  -6  -5  -6 14877.0 1247.49   1
  -6   5  -6 13139.3 1254.49   8
   6  -5  -6 14779.1 1265.68  15
   6  -5  -6 13961.3 1324.96   9
  -6  -5  -6 14397.1 1219.76   2
  -6  -5  -5 1625.65 501.985   1
   6  -5  -5 1450.57 534.397   9
  -6  -5  -5 351.781 809.534   3
   6  -5  -5 1772.04 488.251  15
  -6  -5  -5 1693.94 539.215   2
  -6   5  -5 1541.54 504.192   8
  -6   5  -4 650.691 367.743   8
  -6  -5  -4 992.571 756.388   3
  -6  -5  -4 894.390 427.653   1
   6  -5  -4 744.295 359.969  15
  -6  -5  -4 794.671 409.435   2
   6  -5  -4 1164.73 528.050   9
   6  -5  -4 930.985 387.631  10
   6  -5  -3 1179.16 562.939   9
  -6   5  -3 1626.75 538.532   8
  -6  -5  -3 1423.44 550.416   1
   6  -5  -3 1750.74 515.350  15
  -6  -5  -3 1579.14 569.208   2
  -6  -5  -3 2013.62 510.906  12
  -6  -5  -3 3056.87 990.444   3
   6  -5  -3 2039.81 565.359  10
   6  -5  -2 6360.87 881.627  15
   6  -5  -2 6204.18 1079.04   9
  -6  -5  -2 6378.95 978.514   1
  -6  -5  -2 7069.71 1028.01   2
  -6  -5  -2 6583.11 917.043  12
   6  -5  -2 5669.04 974.963  10
   6  -5  -1 2392.29 545.599  15
  -6  -5  -1 2428.08 596.619  12
  -6  -5  -1 1900.02 568.073   1
   6  -5  -1 2479.12 693.090  10
   6  -5  -1 1975.32 655.510   9
  -6  -5   0 10160.5 1229.42   1
  -6  -5   0 11478.9 1258.64  12
   6  -5   0 10060.8 1373.31  10
   6  -5   0 11140.6 1466.12   9
   6  -5   1 1904.70 691.719   9
  -6  -5   1 2609.06 643.432   1
  -6  -5   1 2894.05 644.536  12
   6  -5   1 2194.61 684.627  10
   6  -5   2 6936.54 1173.50   9
  -6  -5   2 7236.06 995.681   1
  -6  -5   2 7026.34 978.972  12
   6  -5   2 7442.98 1219.95  10
   6  -5   3 1973.85 698.145   9
  -6  -5   3 1201.57 458.604  12
   6  -5   3 1561.08 593.957  10
  -6  -5   4 506.764 297.457  12
   6  -5   4 839.051 471.664  10
  -6  -5   5 1364.19 376.379  12
   6  -5   5 1058.34 481.893  10
  -6  -5   6 13942.1 1090.00  12
   6  -5   6 12539.2 1121.13   6
   6  -5   6 12061.8 1390.30  10
  -6  -5   7 127.810 127.876  12
   6  -5   7-45.0549 201.038   6
  -6  -5   7 222.109 217.321  11
  -6  -5   8 6801.01 571.080  11
   6  -6  -5 1555.97 333.414   9
  -6  -6  -5 1652.20 320.526   1
  -6  -6  -4 50257.0 1787.21   1
   6  -6  -4 49178.1 1865.59   9
   6  -6  -3 2131.29 476.883   9
  -6  -6  -3 2020.37 411.265   1
  -6  -6  -2 64941.8 2251.60   1
   6  -6  -2 65047.6 2448.07   9
   6  -6  -1 266.219 282.861   9
  -6  -6  -1 461.262 210.366  12
  -6  -6  -1 511.178 241.972   1
  -6  -6   0 71995.2 2320.83   1
  -6  -6   0 73937.2 2346.67  12
   6  -6   0 71317.7 2496.62  10
   6  -6   0 73626.8 2718.06   9
  -6  -6   1 484.373 238.483  12
   6  -6   1 515.505 302.006  10
   6  -6   2 68879.7 2547.17  10
  -6  -6   2 69164.9 2226.83  12
  -6  -6   3 2627.42 424.803  12
   6  -6   3 2344.25 353.314  12
   6  -6   3 2628.33 522.810  10
  -6  -6   4 55880.0 1750.70  12
   6  -6   4 50497.9 1502.79  12
   6  -6   4 54362.8 2088.26  10
  -6  -6   5 1682.32 264.045  12
   7   0 -13 88.0260 158.322   5
  -7   0 -13 345.917 251.871  14
  -7   0 -13 184.968 247.416   4
   7   0 -12 183.762 243.682   5
  -7   0 -12 340.691 358.438   4
  -7   0 -12 279.155 322.930  14
   7   0 -11-32.8206 304.891   5
  -7   0 -11-59.0834 383.006  14
  -7   0 -11-401.967 384.532   4
   7   0 -10 152.034 270.898   5
  -7   0 -10 329.107 335.071   4
   7   0  -9-32.7545 200.861   5
  -7   0  -9-5.71372 291.634   4
   7   0  -8 136.241 226.849   5
  -7   0  -8 620.850 400.235   4
  -7   0  -7-225.418 232.741  13
  -7   0  -7 76.3659 169.427  18
  -7   0  -6 145.914 201.480  18
  -7   0  -6 240.781 263.975  13
  -7   0  -5-36.8160 144.039  18
  -7   0  -5-171.696 196.584  13
  -7   0  -4 176.753 184.403  18
  -7   0  -4 48.1667 160.149  13
  -7   0  -3 145.602 161.661  13
  -7   0  -3 63.3510 152.743  18
  -7   0  -2 53.5358 152.997  18
   7   0  -2 84.3431 155.576  17
  -7   0  -2 255.995 157.910  13
  -7   0  -1 57.9975 166.471  18
   7   0  -1 95.4473 126.494  17
  -7   0  -1 21.3551 95.5906  13
  -7   0   0 71.3945 99.0818  16
   7   0   0 94.8377 101.145  17
  -7   0   1 26.8718 191.659  18
  -7   0   1 439.375 129.759  16
  -7   0   2 181.288 195.637  18
  -7   0   2 2525.97 289.004  16
   7   0   3-137.468 144.817  19
  -7   0   3 0.66425 178.863  18
   7   0   4 11.0885 112.216  19
  -7   0   4 82.5048 256.445  19
  -7   0   5 219.026 282.250  19
   7   0   5 66.6451 120.557  19
  -7   0   6 30.5252 220.723  19
   7   0   6 120.194 127.783  19
  -7   0   7 39.1362 211.925  19
  -7   0   8 559.977 343.667  19
  -7   0  13 82.9266 186.606   7
  -7  -1 -13 9866.71 806.737   9
  -7  -1 -13 9719.13 841.913   4
  -7   1 -13 10253.6 915.203  14
  -7   1 -13 9417.48 752.793   4
   7   1 -13 10065.6 800.673   5
  -7  -1 -12 106157. 3531.00   4
  -7   1 -12 100487. 3122.20   4
  -7  -1 -12 105950. 3415.92  14
   7  -1 -12 100216. 2863.80   5
  -7   1 -12 95892.4 3379.46  14
   7   1 -12 95954.5 2969.79   5
  -7  -1 -11 7774.91 1135.63   4
  -7  -1 -11 7023.91 1032.35  14
  -7   1 -11 6897.90 985.262   4
   7  -1 -11 5845.64 816.739   5
   7   1 -11 6592.98 909.283   5
  -7  -1 -10 104007. 4078.51  14
  -7   1 -10 112922. 4169.63   4
  -7  -1 -10 109048. 4401.46   4
   7  -1 -10 105501. 3638.40   5
   7   1 -10 103812. 3712.04   5
   7  -1  -9 1665.90 505.618   5
   7   1  -9 1294.10 444.788   5
  -7  -1  -9 1352.81 524.639  14
  -7   1  -9 1396.79 532.100   4
  -7  -1  -9 1826.11 620.181   4
  -7   1  -8 154396. 3983.63  18
  -7   1  -8 156864. 4903.82   4
  -7  -1  -8 163722. 5299.47   4
  -7  -1  -8 150577. 4856.39  14
  -7  -1  -8 157032. 4907.15  13
   7  -1  -8 154917. 4453.81   5
  -7  -1  -8 158930. 5772.18   3
   7   1  -8 164881. 4579.40   5
  -7  -1  -7 3886.90 735.489  13
  -7  -1  -6 125426. 3827.33  13
  -7  -1  -5 24725.4 1148.26  18
  -7  -1  -5 25158.4 1581.16  13
  -7   1  -4 426708. 5261.74  18
   7  -1  -4 421021. 6856.68  17
  -7  -1  -4 408749. 5884.21  13
  -7  -1  -3 17660.8 921.263  18
   7  -1  -3 18890.0 1352.19  17
  -7   1  -3 17709.1 1032.71  18
  -7  -1  -3 17179.1 1105.18  13
  -7  -1  -2 224298. 3158.91  18
  -7  -1  -2 224908. 4089.80  16
   7  -1  -2 220894. 4158.27  17
  -7   1  -2 215547. 3455.20  18
  -7   1  -1 536.359 223.151  18
  -7  -1  -1 588.140 208.935  18
   7  -1  -1 603.145 259.952  17
  -7  -1  -1 704.340 223.031  13
  -7  -1   0 54152.5 1647.55  18
  -7   1   0 52795.8 1589.78  18
  -7  -1   0 52806.4 1703.23  16
  -7  -1   1 402.384 202.098  16
  -7   1   1 505.500 223.177  18
  -7  -1   1 630.782 227.111  18
   7  -1   2 207503. 3721.56  19
  -7  -1   2 216508. 3555.45  16
  -7   1   2 222675. 3554.30  18
  -7  -1   2 210156. 3527.82  19
  -7  -1   2 215115. 3664.92  18
   7  -1   3 18404.8 1116.59  19
  -7  -1   3 17064.0 1092.08  19
  -7   1   3 15314.9 983.952  18
   7  -1   4 422519. 5362.73  19
  -7   1   4 436049. 5296.01  18
  -7  -1   5 24798.6 1557.38  19
   7  -1   5 23532.7 1310.90  19
  -7   1   5 22278.3 1654.86  19
  -7  -1   6 137327. 3953.16  19
   7  -1   6 125096. 3159.24  19
  -7   1   6 133091. 4148.65  19
   7  -1   7 3751.27 609.450  19
  -7  -1   7 3370.62 701.462  19
  -7   1   7 3455.72 694.891  19
  -7   1   8 154498. 4893.88  19
  -7  -1   8 159498. 4854.60  19
   7  -1   8 148658. 3896.83  19
   7  -1   8 158775. 5452.53   6
  -7  -1   8 159391. 4655.77  11
  -7  -1   9 2196.84 568.731  11
   7  -1   9 1984.90 639.300   6
   7  -1  10 102247. 4190.23   6
  -7  -1  10 96820.0 3400.53  11
  -7  -1  11 6332.43 759.590  11
  -7  -1  12 97182.2 2772.74   7
  -7   1  12 114397. 3527.49   7
  -7   1  13 8287.03 785.922   7
  -7   2 -13 1835.86 335.126  14
   7   2 -13 1501.35 270.043   5
  -7  -2 -13 1901.20 319.496   2
  -7  -2 -12 111164. 2770.23   9
  -7  -2 -12 104422. 2634.66   4
   7   2 -12 106315. 2832.96   5
   7  -2 -12 104362. 2605.65   9
   7  -2 -11-123.193 212.626   9
   7   2 -11 266.176 254.158   5
  -7  -2 -11-16.8855 177.869   9
  -7   2 -11 145.956 198.681   5
  -7   2 -11 217.005 167.747   4
  -7  -2 -11 326.286 268.670   4
   7  -2 -10 104649. 3623.32   9
  -7  -2 -10 102217. 3508.98   9
  -7  -2 -10 105102. 3783.59   4
  -7  -2 -10 105566. 3888.60  14
  -7   2 -10 102097. 3221.56   4
   7  -2 -10 99133.0 3255.78   5
   7   2 -10 103925. 3524.92   5
   7  -2  -9 2896.19 624.116   5
   7  -2  -9 2995.90 717.470   9
   7   2  -9 2617.88 618.991   5
  -7  -2  -9 2728.76 692.885  14
  -7  -2  -9 3395.74 703.423   9
  -7   2  -9 2493.07 557.769   4
  -7  -2  -9 2225.77 580.650   4
  -7   2  -9 1350.20 589.416   8
   7   2  -8 107691. 3701.73   5
   7  -2  -8 108127. 3872.51   9
  -7   2  -8 90465.5 4404.48   8
  -7  -2  -8 102908. 4035.35   4
  -7  -2  -8 105538. 4046.57  14
   7  -2  -8 99529.7 3530.82   5
  -7  -2  -8 101751. 5163.38   3
   7  -2  -7 5974.44 892.319   9
   7   2  -7 5647.23 831.949   5
  -7  -2  -7 7257.09 1572.09   3
  -7  -2  -7 5673.99 917.835  14
  -7  -2  -7 5357.88 961.963  13
  -7   2  -7 5307.45 1039.39   8
  -7  -2  -7 5564.21 919.809   4
   7  -2  -7 6173.17 863.576   5
  -7  -2  -6 264489. 6070.34  13
   7  -2  -5 1959.06 654.017  17
  -7  -2  -5 2123.22 580.073  13
   7  -2  -4 346589. 7471.97  17
  -7  -2  -4 325738. 5872.27  13
  -7  -2  -3 127759. 3378.98  13
  -7   2  -3 130005. 3059.81  18
  -7  -2  -3 123122. 3890.40  16
  -7   2  -2 312325. 4622.97  18
  -7  -2  -2 330417. 3981.68  18
  -7  -2  -2 320184. 4968.58  13
  -7  -2  -2 313130. 5723.73  16
   7  -2  -1 26660.2 1631.82  17
  -7   2  -1 25429.3 1255.68  18
  -7  -2  -1 25662.1 1550.82  16
  -7   2   0 107811. 2460.44  18
  -7  -2   0 106942. 3024.50  16
  -7  -2   1 23891.1 1449.40  16
  -7   2   1 26985.0 1215.50  18
  -7  -2   2 303616. 4003.27  19
   7  -2   2 293618. 5168.81  19
  -7  -2   2 291129. 5259.89  16
   7  -2   3 132228. 3503.33  19
  -7  -2   3 136253. 3017.65  19
  -7  -2   3 137768. 3664.83  16
  -7  -2   4 358388. 5403.93  19
   7  -2   4 344895. 5767.56  19
  -7  -2   4 363364. 6129.31  16
  -7  -2   5 1968.22 483.645  19
   7  -2   5 2108.24 494.183  19
  -7  -2   6 260622. 5472.92  19
   7  -2   6 260123. 5274.77  19
  -7  -2   7 6385.07 940.771  19
   7  -2   7 6551.83 885.284  19
  -7  -2   7 5941.35 997.994   6
   7  -2   7 6408.77 1177.24   6
  -7   2   7 5047.71 856.888  19
  -7  -2   8 111086. 4424.15   6
   7  -2   8 110486. 4832.69   6
   7  -2   9 2721.14 867.577   6
  -7  -2   9 2552.99 639.244  11
   7  -2  10 104393. 4564.80   6
  -7  -2  10 97550.1 3521.99  11
  -7   2  11 190.590 298.702   7
  -7  -2  11 609.766 296.473  11
   7  -2  11 384.392 340.622   6
  -7   2  12 98385.8 2817.79   7
  -7  -2  12 105229. 2491.32  11
  -7   2  13 1381.53 232.738   7
   7   3 -12 1965.76 291.732   5
  -7  -3 -12 2080.42 345.882   2
   7  -3 -11 456.930 262.047   9
   7   3 -11 232.312 186.196   5
  -7   3 -11 679.669 295.746   5
  -7  -3 -11 513.113 319.508   2
   7  -3 -10 4719.94 692.744  15
  -7  -3 -10 4941.67 777.482   2
   7   3 -10 4776.41 670.013   5
   7  -3 -10 5902.88 849.736   9
   7  -3  -9 129.238 333.306   9
   7   3  -9-6.64729 201.222   5
  -7   3  -9 213.071 285.583   8
   7  -3  -9 544.238 270.236  15
  -7  -3  -9 502.501 395.174   2
   7  -3  -8 8719.00 1200.31   9
   7   3  -8 9397.63 1050.02   5
  -7  -3  -8 7886.31 1760.55   3
  -7   3  -8 7990.13 1388.60   8
  -7  -3  -7 51672.8 3751.00   3
   7  -3  -7 47578.4 2771.73   9
   7   3  -7 50826.2 2377.82   5
  -7   3  -7 50829.4 3349.90   8
   7  -3  -6 51064.7 2894.14   9
  -7  -3  -6 54131.4 3716.06   3
  -7  -3  -6 50616.3 2545.95   1
  -7   3  -6 53592.3 3422.33   8
  -7  -3  -5 45462.6 3254.23   3
   7  -3  -5 42039.0 3140.32  17
  -7  -3  -5 41482.2 2278.11   1
  -7  -3  -5 40533.7 2366.17  13
  -7  -3  -5 40604.0 2293.68  12
   7  -3  -5 43545.0 2663.55   9
  -7  -3  -4 19650.9 2062.24   3
  -7   3  -4 18240.6 1358.54  18
   7  -3  -4 20256.5 2086.32  17
  -7  -3  -4 19565.1 1565.34   1
  -7  -3  -4 18779.8 1591.73   2
   7  -3  -4 20526.0 1822.39   9
  -7   3  -3 5957.13 763.299  18
   7  -3  -3 6776.20 1147.31  17
  -7  -3  -3 5891.40 999.055  16
  -7   3  -2 3319.17 555.868  18
  -7  -3  -2 3229.41 698.386  16
   7  -3  -1 32325.9 2136.35  17
  -7   3  -1 30750.0 1530.22  18
  -7  -3  -1 29352.8 2026.19  16
   7  -3   0 8943.37 1092.79  17
  -7  -3   0 8460.69 1061.79  16
  -7  -3   1 30224.2 1977.46  16
  -7  -3   2 2848.66 632.087  16
  -7  -3   3 5839.57 931.383  16
   7  -3   4 19838.4 1659.03  19
  -7  -3   4 18391.6 1664.09  16
   7  -3   4 19402.5 1986.90  10
   7  -3   4 19112.9 1832.24   6
   7  -3   4 22508.5 2036.38   9
   7  -3   5 43175.0 2465.40  19
  -7  -3   5 42599.4 2582.71  16
  -7  -3   5 43617.4 2563.83   6
  -7  -3   5 42907.1 2153.84  12
   7  -3   5 41090.9 2799.02   6
   7  -3   5 40114.3 2935.22  10
  -7  -3   6 53655.2 2953.40   6
   7  -3   6 52179.0 3228.09   6
   7  -3   6 47089.1 3268.01  10
  -7   3   7 47566.9 2564.94   7
  -7  -3   7 53470.2 3015.31   6
   7  -3   7 49398.9 3229.37   6
  -7   3   8 7963.38 1070.15   7
   7  -3   8 9597.73 1454.90   6
   7  -3   8 8280.46 1357.00  10
  -7   3   9 699.561 341.175   7
   7  -3   9 514.176 395.476   6
  -7  -3   9 56.4300 282.147  11
  -7   3  10 4291.86 622.665   7
  -7  -3  10 5123.52 780.932  11
   7  -3  10 4670.37 923.555   6
   7  -3  11-33.3248 186.182   6
  -7   3  11 561.474 214.805   7
  -7  -3  11 604.437 262.728  11
   7  -3  12 1394.51 285.968   6
  -7  -3  12 1356.60 250.804  11
   7  -4 -10 34744.9 1416.96  15
   7  -4 -10 35179.8 1566.69   9
   7  -4  -9 3022.97 581.154   9
   7  -4  -9 3416.62 598.698  15
  -7  -4  -9 3438.58 607.846   2
   7  -4  -8 60048.3 2680.31  15
  -7  -4  -8 64917.1 2693.18   2
  -7   4  -8 60439.6 3107.66   8
   7  -4  -8 58748.9 2745.89   9
   7  -4  -7 2391.59 697.968   9
   7  -4  -7 2478.28 622.873  15
  -7   4  -7 3605.99 855.559   8
  -7  -4  -7 2177.20 1016.89   3
  -7  -4  -7 2875.42 682.111   2
  -7  -4  -7 3172.77 611.953   1
  -7   4  -6 68002.9 3621.15   8
  -7  -4  -6 70242.1 3134.07   2
   7  -4  -6 64745.2 3123.18  15
  -7  -4  -6 67889.0 3017.43   1
   7  -4  -6 63364.6 3218.65   9
  -7  -4  -6 66098.6 3860.79   3
  -7  -4  -5 12917.6 1888.17   3
  -7  -4  -5 12866.5 1371.03   2
   7  -4  -5 10802.2 1294.99  15
  -7   4  -5 12878.3 1611.54   8
  -7  -4  -5 12824.4 1370.45   1
   7  -4  -5 12536.7 1490.80   9
  -7  -4  -4 61053.4 3631.12   3
  -7  -4  -4 66458.3 3055.01   2
  -7  -4  -4 55576.1 2719.11  12
   7  -4  -4 60356.1 3017.83  15
   7  -4  -4 62645.0 3330.90   9
  -7  -4  -4 64294.9 3074.64   1
  -7  -4  -3 579.576 313.941  12
   7  -4  -3 1214.32 546.004   9
   7  -4  -3 745.080 387.867  15
  -7  -4  -3 15.3290 565.710   3
  -7  -4  -3 687.195 419.927   2
  -7  -4  -3 862.120 438.576   1
  -7  -4  -2 88960.7 3515.85   2
  -7  -4  -2 89585.3 4243.63   3
   7  -4  -2 86556.3 3472.13  15
  -7  -4  -2 84747.2 3421.16  12
  -7  -4  -2 93278.1 3768.99   1
   7  -4  -2 93700.1 4045.55   9
  -7  -4  -1 19150.9 1929.87   3
   7  -4  -1 24024.3 1756.56  15
  -7  -4  -1 22526.7 1795.50  12
  -7  -4  -1 22955.6 1897.79   1
   7  -4  -1 23132.4 2018.25   9
  -7  -4  -1 22834.1 1776.08   2
  -7  -4   0 127152. 4800.17   3
  -7  -4   0 135286. 4396.75  12
  -7  -4   0 131870. 4539.76   1
  -7  -4   0 134444. 4871.62  16
  -7  -4   0 126719. 4125.94   2
   7  -4   0 130638. 4800.34   9
  -7  -4   1 20083.7 1875.87   3
  -7  -4   1 22549.7 1846.53   1
  -7  -4   1 22835.4 1796.33  12
   7  -4   1 23103.5 2146.66  10
   7  -4   1 22379.6 2055.74   9
  -7  -4   2 85727.8 3595.04   1
  -7  -4   2 91287.9 3543.55  12
   7  -4   2 94189.1 4391.13  10
   7  -4   2 88768.9 4131.51   9
   7  -4   3 782.933 530.582   9
  -7  -4   3 1041.19 434.030   1
  -7  -4   3 271.034 297.976  12
   7  -4   3 695.785 338.038   6
   7  -4   3 771.249 585.804  10
  -7  -4   4 59321.1 2770.67  12
   7  -4   4 57594.6 3189.35   6
   7  -4   4 55157.4 3470.92  10
   7  -4   4 57378.0 3463.05   9
   7  -4   5 12837.2 1544.07   6
  -7  -4   5 13681.8 1313.92  12
   7  -4   5 10964.1 1589.65  10
   7  -4   6 68797.9 3556.51   6
  -7  -4   6 67841.1 2767.73  12
   7  -4   7 2492.89 696.790   6
  -7  -4   7 2906.37 605.360  11
   7  -4   7 2597.82 774.536  10
   7  -4   8 63077.7 3134.71   6
  -7  -4   8 58794.2 2493.12  11
   7  -4   8 58836.6 3160.05  10
   7  -4   9 3280.98 708.665   6
  -7  -4   9 3239.16 568.786  11
   7  -4  10 40405.0 1909.22   6
  -7  -4  10 38469.6 1523.87  11
  -7  -5  -8 84099.3 2111.03   2
   7  -5  -8 75902.8 2195.74   9
  -7  -5  -7 3471.53 517.916   1
   7  -5  -7 4027.39 587.580  15
  -7   5  -7 2882.24 538.679   8
  -7  -5  -7 4296.91 596.325   2
   7  -5  -7 4377.18 663.404   9
  -7   5  -6 60618.8 2609.82   8
   7  -5  -6 66711.3 2553.70  15
  -7  -5  -6 66246.6 2498.15   1
   7  -5  -6 62930.7 2601.68   9
  -7  -5  -6 66725.0 2436.83   2
  -7   5  -5 5614.63 867.236   8
  -7  -5  -5 5105.58 1059.35   3
   7  -5  -5 6389.13 863.314  15
  -7  -5  -5 5975.31 878.850   1
   7  -5  -5 5430.96 777.996  10
  -7  -5  -5 6843.49 879.207   2
   7  -5  -5 6638.64 945.069   9
   7  -5  -4 80205.9 3053.15  15
  -7  -5  -4 82702.7 3229.69   1
  -7  -5  -4 83638.9 2844.96  12
  -7   5  -4 82633.0 3357.83   8
   7  -5  -4 85007.9 3265.42  10
  -7  -5  -4 82625.1 3053.44   2
   7  -5  -4 83560.5 3428.59   9
  -7  -5  -4 84885.1 3592.45   3
  -7  -5  -3 2409.93 1057.54   3
   7  -5  -3 1150.47 416.941  15
  -7  -5  -3 1657.37 513.684   2
  -7  -5  -3 1424.07 429.986  12
  -7   5  -3 1044.06 432.604   8
  -7  -5  -3 946.036 428.631   1
   7  -5  -3 922.384 445.715  10
   7  -5  -3 834.037 549.649   9
  -7  -5  -2 137012. 4554.98   3
  -7  -5  -2 129534. 3976.02  12
   7  -5  -2 143569. 4009.88  15
  -7  -5  -2 140076. 4458.34   1
   7  -5  -2 138554. 4638.45  10
  -7  -5  -2 136404. 4066.18   2
   7  -5  -2 141709. 4802.36   9
   7  -5  -1 4507.55 940.513   9
  -7  -5  -1 3678.82 759.396   1
  -7  -5  -1 4430.60 756.397  12
   7  -5  -1 4566.31 896.187  10
  -7  -5   0 95333.4 3691.08   1
  -7  -5   0 100182. 3598.55  12
   7  -5   0 100237. 4195.74  10
   7  -5   0 99185.9 4139.70   9
   7  -5   1 3683.90 812.618   9
  -7  -5   1 4540.99 776.431  12
  -7  -5   1 4120.16 787.638   1
   7  -5   1 4486.41 939.839  10
  -7  -5   2 136987. 4136.05   1
  -7  -5   2 146608. 4293.04  12
   7  -5   2 145231. 5123.79  10
   7  -5   2 149922. 5127.46   9
   7  -5   3 1362.74 535.842   9
  -7  -5   3 1463.58 461.369  12
   7  -5   3 938.800 505.692  10
  -7  -5   4 81454.6 2977.81  12
   7  -5   4 80477.8 3750.98  10
  -7  -5   5 7146.22 836.042  12
   7  -5   5 5500.05 964.079  10
  -7  -5   6 68141.6 2284.38  12
   7  -5   6 61016.1 2935.08  10
  -7  -5   7 3439.65 407.194  12
  -7  -6  -4 8127.52 668.811   1
   7  -6  -4 7035.16 672.312   9
   7  -6  -3 588.088 282.138   9
  -7  -6  -3 1029.29 298.153   1
  -7  -6  -2 9869.62 842.242   1
   7  -6  -2 8539.34 847.463   9
   7  -6  -1 122.706 249.073   9
  -7  -6  -1 69.3561 158.493   1
  -7  -6  -1 247.316 178.316  12
   7  -6  -1-153.453 196.463  10
  -7  -6   0 5128.15 599.096  12
   7  -6   0 4044.97 619.277  10
   7  -6   0 5057.99 700.141   9
  -7  -6   1 298.837 203.772  12
   7  -6   1 120.069 211.183  10
  -7  -6   2 9323.26 786.666  12
   7  -6   2 8947.68 899.092  10
  -7  -6   3 1034.67 258.595  12
   7  -6   3 893.175 310.247  10
  -7  -6   4 6482.73 549.250  12
   7  -6   4 6795.28 702.176  10
  -8   0 -13 5604.72 641.500  14
   8   0 -13 4904.65 530.938   5
  -8   0 -13 4655.66 589.995   4
  -8   0 -12 77306.1 3061.12   4
  -8   0 -12 80207.5 2940.55  14
   8   0 -12 80968.2 2655.03   5
  -8   0 -11 11359.7 1286.84  14
  -8   0 -11 13914.1 1527.79   4
   8   0 -11 12073.8 1197.15   5
  -8   0 -10 117495. 4274.37  14
  -8   0 -10 131203. 4991.92   4
   8   0 -10 122393. 4028.58   5
   8   0  -9 229.987 296.255   5
  -8   0  -9 617.818 477.260   4
  -8   0  -8 130302. 4941.03   4
  -8   0  -8 123033. 4160.47  13
   8   0  -8 122636. 3984.80   5
  -8   0  -7 14696.8 1346.37  13
  -8   0  -7 15436.3 1185.69  18
  -8   0  -6 424618. 5862.29  18
  -8   0  -6 426181. 6574.71  13
  -8   0  -5 4546.60 597.298  18
  -8   0  -5 5342.23 694.147  13
  -8   0  -4 311100. 4566.97  18
  -8   0  -4 323670. 4716.38  13
  -8   0  -3 15815.5 994.134  18
  -8   0  -3 16916.1 962.003  13
  -8   0  -2 477389. 5160.10  18
   8   0  -2 492165. 5255.01  17
  -8   0  -2 487061. 4375.21  13
   8   0  -1 4631.52 466.621  17
  -8   0  -1 4832.36 522.860  18
  -8   0   0 816220. 5380.84  16
  -8   0   0 805443. 6491.13  18
   8   0   0 810512. 5405.84  17
  -8   0   1 4600.14 538.038  18
  -8   0   1 5033.36 396.126  16
  -8   0   2 484462. 5631.28  18
  -8   0   3 15650.3 1102.69  18
  -8   0   4 312943. 5689.62  19
   8   0   4 325892. 4651.01  19
   8   0   5 5082.30 600.370  19
  -8   0   5 3915.01 705.860  19
  -8   0   6 397657. 7253.98  19
   8   0   6 463039. 5843.51  19
  -8   0   7 14278.5 1483.75  19
  -8   0   8 135443. 4755.17  19
  -8   0   8 132150. 3951.15  11
  -8   0  12 77996.4 2781.10   7
  -8   0  13 4014.99 494.433   7
   8   1 -13 1280.02 288.308   5
  -8   1 -13 1020.71 294.127  14
  -8   1 -13 997.269 241.614   4
  -8  -1 -13 1008.87 281.191   4
  -8   1 -12 38976.4 1865.45   4
  -8  -1 -12 39580.3 1802.10   9
  -8  -1 -12 42494.7 2045.73  14
  -8  -1 -12 37915.3 2064.97   4
  -8   1 -12 37034.1 1962.14  14
   8  -1 -12 39057.2 1704.22   5
   8   1 -12 37623.8 1794.64   5
   8  -1 -11 3433.14 631.632   5
   8   1 -11 4070.11 710.389   5
  -8  -1 -11 4203.75 792.616  14
  -8   1 -11 3483.28 702.422   4
  -8  -1 -11 4101.88 839.492   4
  -8  -1 -10 40622.9 2741.60   4
  -8  -1 -10 37383.9 2382.65  14
  -8   1 -10 38996.5 2472.84   4
   8  -1 -10 40078.9 2230.42   5
   8   1 -10 40689.2 2298.44   5
  -8  -1  -9 2831.53 699.698  14
   8   1  -9 2684.69 658.851   5
  -8   1  -9 3331.20 774.636   4
  -8  -1  -9 3804.97 926.757   4
   8  -1  -9 2477.19 618.370   5
  -8   1  -8 65140.5 2708.58  18
  -8   1  -8 63744.7 3258.62   4
  -8  -1  -8 70637.0 3700.21   4
  -8  -1  -8 61899.3 3078.73  14
  -8  -1  -8 64808.5 3193.78  13
   8  -1  -8 68613.8 2973.30   5
  -8  -1  -8 61270.6 3703.34   3
   8   1  -8 69188.3 2980.47   5
   8  -1  -7 162.251 214.578   5
   8   1  -7-334.719 255.908   5
  -8  -1  -7 601.107 335.140  13
  -8   1  -7 157.878 255.668  18
  -8  -1  -7 330.850 315.378  14
  -8   1  -7-145.798 248.704   4
  -8  -1  -7-182.770 241.872   4
  -8   1  -6 71499.0 2557.10  18
  -8  -1  -6 70312.0 2938.34  13
  -8   1  -5 2255.63 470.150  18
  -8  -1  -5 2533.06 404.593  18
  -8  -1  -5 2500.78 550.103  13
  -8   1  -4 74473.8 2384.31  18
  -8  -1  -4 78319.0 2098.41  18
   8  -1  -4 75511.2 2973.11  17
  -8  -1  -4 72723.9 2549.04  13
  -8   1  -3 49125.0 1870.32  18
  -8  -1  -3 47486.4 1601.24  18
   8  -1  -3 47599.5 2186.99  17
  -8  -1  -3 45760.9 1845.09  13
  -8   1  -2 182866. 3446.82  18
  -8  -1  -2 181964. 3101.95  18
   8  -1  -2 191789. 4005.75  17
  -8  -1  -2 185401. 3857.68  16
  -8  -1  -2 174554. 3116.99  13
   8  -1  -1 26673.2 1374.73  17
  -8  -1  -1 25280.9 1330.51  16
  -8  -1  -1 25342.3 1180.26  18
  -8   1  -1 23270.2 1174.21  18
  -8  -1   0 21637.5 1133.94  18
  -8  -1   0 24241.7 1211.97  16
  -8   1   0 21386.4 1094.70  18
  -8   1   1 26463.7 1232.06  18
  -8  -1   1 23876.3 1268.89  18
  -8  -1   1 27027.0 1269.62  16
  -8  -1   2 188870. 3506.25  16
  -8  -1   2 184647. 3684.81  18
  -8  -1   2 184750. 3559.75  19
   8  -1   3 48539.4 1991.88  19
  -8   1   3 46069.8 1842.85  18
  -8  -1   3 51451.5 1923.66  16
  -8  -1   3 43780.7 1863.89  19
  -8  -1   4 75144.2 2660.71  19
   8  -1   4 77430.6 2544.04  19
  -8   1   4 70395.6 2398.79  18
  -8   1   5 2062.45 578.358  19
  -8  -1   5 2615.43 571.654  19
   8  -1   5 2459.73 474.425  19
  -8   1   6 60927.3 3007.24  19
  -8  -1   6 62318.3 2820.39  19
   8  -1   6 63994.3 2395.24  19
  -8   1   7-218.144 275.312  19
  -8  -1   7 22.8400 306.951  19
   8  -1   7 122.321 220.933  19
  -8  -1   7 304.953 263.920  11
   8  -1   7 370.033 413.592   6
  -8   1   8 68651.4 3474.22  19
  -8  -1   8 70305.7 3346.75  19
   8  -1   8 67355.1 3721.52   6
  -8  -1   8 65706.0 3083.52  11
  -8  -1   9 3637.89 721.794  11
   8  -1   9 2763.48 814.460   6
  -8  -1  10 38253.9 2185.38   7
   8  -1  10 37670.9 2551.50   6
  -8  -1  10 35159.3 2042.72  11
  -8  -1  11 3336.42 615.007   7
  -8   1  11 4448.31 806.441   7
  -8  -1  11 3422.21 538.627  11
  -8   1  12 40839.1 2041.58   7
  -8   1  13 1366.93 319.727   7
  -8  -2 -12 17374.9 1014.58   4
   8   2 -12 19714.4 1138.78   5
   8   2 -11 3584.99 610.233   5
   8  -2 -11 4222.93 618.414   9
  -8  -2 -11 3828.98 646.827   4
   8  -2 -10 10726.9 1132.89   9
  -8  -2 -10 9131.66 986.349   9
  -8  -2 -10 10191.7 1224.29   4
  -8   2 -10 10513.9 1021.36   4
   8   2 -10 11071.8 1142.15   5
   8  -2  -9 967.519 376.609   5
   8  -2  -9 909.470 367.318   9
   8   2  -9 1336.59 437.828   5
  -8   2  -9 443.598 369.794   8
  -8  -2  -9 1021.86 481.080  14
  -8  -2  -9 1134.28 461.584   4
   8  -2  -8 44954.5 2484.85   9
  -8  -2  -8 40656.7 2629.67   4
  -8  -2  -8 42980.3 2524.75  14
   8  -2  -8 42588.2 2309.39   5
  -8  -2  -8 39759.3 3328.52   3
   8   2  -8 44401.2 2343.94   5
   8  -2  -7 26700.9 1955.82   9
  -8  -2  -7 23983.2 2695.70   3
  -8   2  -7 20991.6 2119.70   8
  -8   2  -7 25738.8 1716.18  18
  -8  -2  -7 24816.6 2064.22   4
  -8  -2  -7 25567.5 1926.94  14
  -8  -2  -7 25554.2 2006.26  13
   8  -2  -7 26309.4 1802.85   5
   8   2  -7 24783.2 1688.09   5
   8   2  -6 64941.9 2586.44   5
  -8  -2  -6 61192.7 3887.71   3
  -8   2  -6 61554.9 2517.39  18
  -8  -2  -6 66554.3 2979.15  14
  -8  -2  -6 62732.8 3001.92  13
  -8  -2  -6 61950.4 3198.25   4
   8  -2  -6 63722.2 2733.84   5
   8  -2  -5 9055.52 1332.22  17
  -8   2  -5 8533.18 913.260  18
  -8  -2  -5 8929.42 1072.91  13
   8  -2  -4 15348.5 1606.06  17
  -8   2  -4 14087.8 1124.14  18
  -8  -2  -4 14245.7 1243.78  13
  -8   2  -3 19206.3 1280.14  18
   8  -2  -3 19413.6 1675.89  17
  -8  -2  -3 16574.1 1456.06  16
  -8  -2  -3 17407.3 1249.09  13
  -8   2  -2 146838. 3379.58  18
   8  -2  -2 147935. 4208.64  17
  -8  -2  -2 142572. 2891.09  18
  -8  -2  -2 139125. 3880.91  16
  -8  -2  -1 1756.16 351.831  18
   8  -2  -1 2325.11 533.228  17
  -8  -2  -1 1957.60 463.567  16
  -8   2  -1 1817.52 377.835  18
  -8   2   0 131379. 2897.83  18
  -8  -2   0 133449. 3468.62  16
  -8   2   1 2160.20 379.299  18
  -8  -2   1 1845.51 433.378  16
  -8   2   2 187419. 3425.22  18
  -8  -2   2 139140. 3721.02  16
  -8  -2   3 18228.4 1165.75  19
   8  -2   3 18364.0 1436.34  19
  -8  -2   3 19331.7 1458.28  16
  -8  -2   4 18425.4 1288.94  19
   8  -2   4 19280.7 1488.72  19
  -8  -2   4 20367.3 1529.78  16
   8  -2   5 8625.66 1001.60  19
  -8  -2   5 8703.03 1034.67  16
  -8  -2   5 8863.02 976.883  19
  -8   2   6 51676.0 2894.00  19
  -8  -2   6 56633.0 2642.23  19
   8  -2   6 61345.5 2713.31  19
  -8   2   6 69176.0 3110.49   7
  -8  -2   6 63047.3 2853.65  16
   8  -2   6 66387.4 3628.42   6
  -8   2   7 20888.0 1850.06  19
  -8  -2   7 24921.7 1871.44  19
   8  -2   7 26862.0 1855.79  19
  -8   2   7 28015.1 2031.66   7
   8  -2   7 28839.7 2490.93   6
  -8   2   8 53410.3 2840.54   7
   8  -2   8 50930.7 3378.96   6
  -8  -2   8 47488.5 2647.76  11
  -8   2   9 1547.15 561.525   7
   8  -2   9 980.795 540.483   6
  -8  -2   9 1089.54 489.884  11
   8  -2  10 12687.9 1604.03   6
  -8   2  10 11446.3 1312.94   7
  -8  -2  10 12410.1 1251.82  11
  -8   2  11 3226.43 636.788   7
   8  -2  11 3761.63 753.642   6
  -8  -2  11 3361.81 569.386  11
  -8   2  12 16519.7 1080.64   7
   8  -2  12 15825.5 1090.93   6
  -8  -2  12 17916.4 948.598  11
  -8  -3 -12 65887.3 1546.64   2
  -8   3 -12 58579.5 1560.72  14
   8   3 -11 275.351 153.436   5
   8  -3 -11-109.226 94.0325   9
  -8   3 -11 253.885 166.480   5
  -8  -3 -11 197.889 230.229   2
  -8  -3 -10 119769. 3415.01   2
   8  -3 -10 108515. 3219.82  15
   8   3 -10 117027. 3026.80   5
   8  -3 -10 113568. 3332.07   9
   8  -3  -9 1165.93 460.863   9
   8   3  -9 814.266 335.133   5
   8  -3  -9 974.723 380.626  15
  -8   3  -9 428.042 373.646   8
  -8  -3  -9 1075.82 438.058   2
  -8  -3  -8 114695. 3892.28   2
  -8  -3  -8 104419. 5194.78   3
   8   3  -8 115698. 3432.79   5
   8  -3  -8 109926. 3976.01   9
  -8  -3  -7 18660.2 2536.00   3
  -8   3  -7 13786.8 1779.69   8
   8   3  -7 17162.3 1330.62   5
   8  -3  -7 15840.7 1602.64   9
  -8  -3  -6 120236. 5593.72   3
  -8   3  -6 130450. 5381.85   8
  -8  -3  -6 137279. 4236.17   1
   8  -3  -6 129482. 4569.91   9
   8  -3  -5 42445.2 3125.23  17
  -8  -3  -5 39170.6 2332.87   2
  -8   3  -5 40594.5 2157.67  18
  -8  -3  -5 35628.9 2171.21  12
  -8  -3  -5 39940.6 2305.35   1
  -8  -3  -5 38888.7 3129.60   3
   8  -3  -5 39058.7 2558.03   9
  -8  -3  -4 165213. 6189.74   3
  -8   3  -4 176155. 4398.45  18
   8  -3  -4 185665. 6254.49  17
  -8  -3  -4 167076. 4646.63   2
  -8  -3  -4 156060. 4509.10  12
  -8  -3  -4 162100. 4588.84   1
   8  -3  -4 172009. 5306.03   9
  -8   3  -3 3681.23 641.196  18
   8  -3  -3 4887.51 976.592  17
  -8  -3  -3 4375.28 849.771  16
  -8  -3  -3 2565.91 830.070   3
  -8  -3  -3 3536.54 670.770  12
  -8  -3  -3 3990.13 740.720   1
  -8  -3  -3 3542.73 690.065   2
   8  -3  -2 318989. 7214.55  17
  -8   3  -2 305551. 5452.55  18
   8  -3  -1 3843.90 775.813  17
  -8  -3  -1 4445.73 781.114  16
  -8   3  -1 4105.62 602.838  18
   8  -3   0 268634. 5950.75  17
  -8  -3   0 234700. 5565.61  16
  -8  -3   1 4646.05 781.796  16
  -8  -3   2 277612. 6248.40  16
   8  -3   3 2854.68 760.434   9
  -8  -3   3 3200.41 706.611  16
   8  -3   3 4268.82 865.086   6
   8  -3   3 3912.83 849.912  10
  -8  -3   4 163943. 5082.16  16
  -8  -3   4 158965. 4233.00  12
   8  -3   4 169200. 5626.74   6
   8  -3   4 159670. 5374.42   9
   8  -3   5 38865.2 2464.26  19
  -8  -3   5 41664.8 2618.05  16
  -8  -3   5 40799.1 2148.29  12
   8  -3   5 39220.7 2809.72   6
   8  -3   5 35413.5 2764.68  10
  -8   3   6 135922. 4200.30   7
   8  -3   6 134219. 5300.93   6
   8  -3   6 124070. 5202.77  10
   8  -3   7 17591.2 1966.02   6
  -8   3   7 15860.9 1477.11   7
  -8  -3   7 16231.9 1492.90  11
   8  -3   7 15418.6 1813.47  10
   8  -3   8 118459. 4985.47   6
  -8   3   8 119264. 3866.19   7
  -8  -3   8 115187. 3997.41  11
   8  -3   8 121493. 4688.46  10
  -8   3   9 273.689 259.269   7
   8  -3   9 493.220 450.396   6
  -8  -3   9 1035.25 440.798  11
  -8   3  10 119593. 3037.99   7
   8  -3  10 113634. 4196.58   6
  -8  -3  10 111109. 3281.91  11
  -8   3  11 414.222 155.845   7
   8  -3  11 356.132 217.790   6
  -8  -3  11 557.363 234.906  11
   8  -4 -10 42807.9 1431.29  15
   8  -4 -10 44470.2 1505.00   9
   8  -4  -9 3162.38 546.223   9
   8  -4  -9 2693.48 503.805  15
  -8  -4  -9 3577.58 577.013   2
  -8   4  -8 37283.2 2342.15   8
  -8  -4  -8 43710.1 2096.69   2
   8  -4  -8 39579.0 2119.27  15
   8  -4  -8 36529.9 2042.57   9
  -8  -4  -7 6475.01 901.302   2
  -8   4  -7 5532.67 1024.49   8
  -8  -4  -7 3332.70 1258.88   3
   8  -4  -7 5742.96 906.504  15
  -8  -4  -7 5582.20 806.755   1
   8  -4  -7 6556.98 989.964   9
  -8  -4  -6 26215.8 2662.55   3
  -8   4  -6 22240.6 2069.68   8
  -8  -4  -6 24521.6 1777.63   2
   8  -4  -6 23869.0 1872.65  15
  -8  -4  -6 24665.3 1802.00   1
   8  -4  -6 23233.0 1885.06   9
  -8  -4  -5 10086.6 1195.05   2
   8  -4  -5 10480.5 1280.98  15
  -8  -4  -5 8046.31 1642.53   3
  -8  -4  -5 8338.54 1061.55  12
  -8  -4  -5 9874.96 1198.15   1
   8  -4  -5 9998.94 1320.51   9
  -8  -4  -4 75457.2 4090.57   3
  -8  -4  -4 78638.3 3227.36   2
  -8  -4  -4 73739.8 3128.65  12
   8  -4  -4 79044.0 3451.43  15
  -8  -4  -4 78085.3 3419.26   1
   8  -4  -4 81049.4 3739.12   9
  -8  -4  -3 5191.09 908.455   1
   8  -4  -3 5655.47 1037.92   9
   8  -4  -3 6264.87 988.476  15
  -8  -4  -3 3542.94 986.529   3
  -8  -4  -3 4903.05 836.426  12
  -8  -4  -3 5479.23 867.916   2
  -8  -4  -2 55752.3 2684.49   2
  -8  -4  -2 50927.3 3279.34   3
   8  -4  -2 53273.1 2719.61  15
  -8  -4  -2 52452.2 2754.55  12
  -8  -4  -2 56391.1 3000.00   1
   8  -4  -2 54742.9 3087.06   9
   8  -4  -1 767.369 516.269   9
   8  -4  -1 220.790 263.202  15
  -8  -4  -1-98.2961 282.784   2
  -8  -4  -1-215.652 424.052   3
  -8  -4  -1 585.508 336.487  12
  -8  -4  -1 529.534 395.840   1
  -8  -4   0 65437.9 3542.32   3
  -8  -4   0 72411.7 3449.89   1
  -8  -4   0 74008.8 3324.43  12
  -8  -4   0 69409.6 2928.26   2
   8  -4   0 71209.0 3558.84   9
   8  -4   1 1034.05 535.645   9
  -8  -4   1 817.535 401.991   1
  -8  -4   1 488.692 329.295  12
  -8  -4   1 623.179 423.188   3
   8  -4   1 963.397 484.120  10
  -8  -4   2 48248.0 2733.45   1
  -8  -4   2 45051.2 2791.99   3
  -8  -4   2 49598.4 2647.42  12
   8  -4   2 46119.6 3108.93  10
   8  -4   2 46997.2 2965.24   9
   8  -4   3 4214.03 954.342   9
  -8  -4   3 5609.55 932.067   1
  -8  -4   3 5036.11 863.314  12
  -8  -4   3 5620.54 980.816   3
   8  -4   3 4894.94 909.821   6
   8  -4   3 5068.46 1123.78  10
  -8  -4   4 75731.3 3138.07  12
   8  -4   4 79123.8 3783.97   6
  -8  -4   4 74416.7 2927.29  11
   8  -4   4 70796.4 3907.33  10
  -8  -4   5 10150.7 1120.77  12
   8  -4   5 9755.43 1363.13   6
  -8  -4   5 9213.64 1048.51  11
   8  -4   5 7665.42 1289.16  10
  -8  -4   6 27016.8 1704.15  12
   8  -4   6 24952.3 2150.33   6
  -8  -4   6 25090.7 1731.13  11
   8  -4   6 22861.2 2159.25  10
   8  -4   7 7107.87 1120.75   6
  -8  -4   7 6918.12 896.411  11
   8  -4   7 6411.84 1106.91  10
   8  -4   8 36677.1 2357.16   6
  -8  -4   8 37394.5 1916.12  11
   8  -4   9 3303.42 663.908   6
  -8  -4   9 3206.64 524.958  11
   8  -4  10 51601.3 1981.11   6
  -8  -4  10 50363.9 1577.54  11
   8  -5  -8 1388.86 269.229   9
  -8  -5  -8 2082.10 329.924   2
  -8   5  -7 1611.53 382.305   8
   8  -5  -7 1758.50 365.368  15
  -8  -5  -7 1800.27 377.420   2
   8  -5  -7 1378.89 368.321   9
  -8   5  -6 7755.26 907.657   8
   8  -5  -6 8764.47 891.099  15
  -8  -5  -6 8676.19 878.658   1
  -8  -5  -6 9738.66 891.907   2
   8  -5  -6 8362.03 912.365   9
  -8   5  -5 748.510 381.814   8
  -8  -5  -5 992.301 380.050   1
  -8  -5  -5-537.829 851.448   3
   8  -5  -5 1167.74 381.334  15
  -8  -5  -5 1093.15 400.032   2
   8  -5  -5 879.986 415.710   9
   8  -5  -5 1391.16 423.698  10
  -8   5  -4 8710.67 1093.96   8
  -8  -5  -4 9588.69 1097.90   1
   8  -5  -4 8415.27 962.794  15
  -8  -5  -4 7899.20 873.406  12
   8  -5  -4 8262.43 1036.14  10
  -8  -5  -4 8492.22 945.042   2
   8  -5  -4 8895.74 1108.12   9
  -8  -5  -4 10148.9 1468.27   3
   8  -5  -3 2526.01 691.267   9
  -8   5  -3 1820.47 546.146   8
  -8  -5  -3 2073.51 595.936   1
  -8  -5  -3 3698.16 1149.72   3
   8  -5  -3 1994.15 498.216  15
  -8  -5  -3 2269.03 563.246   2
  -8  -5  -3 2206.79 503.709  12
   8  -5  -3 2393.65 623.611  10
   8  -5  -2 4755.04 932.202   9
  -8  -5  -2 5995.62 964.122   1
   8  -5  -2 5015.08 717.909  15
  -8  -5  -2 7247.35 1189.16   3
  -8  -5  -2 4913.55 761.944  12
  -8  -5  -2 5927.45 830.266   2
   8  -5  -2 5274.32 925.425  10
  -8  -5  -1 1487.58 539.920   1
   8  -5  -1 1799.22 584.421   9
  -8  -5  -1 2605.91 743.351   3
  -8  -5  -1 1410.88 462.872  12
   8  -5  -1 1875.18 609.625  10
  -8  -5   0 10882.8 1187.80  12
  -8  -5   0 10409.9 1212.94   1
   8  -5   0 11085.3 1402.47  10
   8  -5   0 10289.9 1331.90   9
   8  -5   1 1827.43 656.806   9
  -8  -5   1 1497.63 491.377   1
  -8  -5   1 2060.32 564.944  12
   8  -5   1 1520.13 566.292  10
   8  -5   2 5438.39 1010.95   9
  -8  -5   2 5556.21 872.010  12
   8  -5   2 6109.12 1071.95  10
  -8  -5   2 5308.51 822.139   1
  -8  -5   3 2308.15 574.152  12
   8  -5   3 2438.69 697.939  10
  -8  -5   4 8133.91 937.921  12
   8  -5   4 7605.24 1111.97  10
  -8  -5   5 1432.31 388.044  12
   8  -5   5 874.492 437.009  10
  -8  -5   6 9459.26 797.919  12
   8  -5   6 9099.40 1074.17  10
   8  -6  -3 2319.18 404.390   9
  -8  -6  -3 2386.39 371.343   1
   8  -6  -2 42145.2 1706.35   9
   8  -6  -1 414.878 266.366   9
  -8  -6  -1 53.5019 184.736  12
   8  -6  -1-398.593 205.020  10
  -8  -6   0 47467.6 1656.67  12
   8  -6   0 42160.9 1752.51  10
  -8  -6   1 180.624 166.224  12
   8  -6   1 597.044 267.482  10
  -8  -6   2 41130.6 1516.10  12
   8  -6   2 39472.2 1706.29  10
  -8  -6   3 2791.83 380.029  12
   8  -6   3 2758.85 445.216  10
   9   0 -13 111.946 125.293   5
  -9   0 -13 158.896 172.152  14
  -9   0 -13-100.287 170.693   4
   9   0 -12 196.308 212.628   5
  -9   0 -12-44.6530 291.789  14
  -9   0 -12 75.4599 251.248   4
   9   0 -11-23.1758 213.305   5
  -9   0 -11 39.1906 279.087  14
  -9   0 -11-288.175 390.160   4
   9   0 -10 177.349 255.664   5
  -9   0 -10 229.800 322.769  14
  -9   0 -10 376.979 470.812   4
   9   0  -9-38.5166 212.000   5
  -9   0  -9-351.629 425.849   4
   9   0  -8 254.822 291.662   5
  -9   0  -8 294.565 376.073   4
   9   0  -7 338.294 274.818   5
  -9   0  -7 389.066 263.671  18
  -9   0  -7-612.859 359.858  13
  -9   0  -7-443.918 435.874   4
  -9   0  -6-21.8343 237.550  18
  -9   0  -6 91.7530 213.135  13
  -9   0  -5 352.533 235.806  18
  -9   0  -5 100.563 183.322  13
  -9   0  -4 73.0128 191.472  13
  -9   0  -4 72.2176 170.823  18
  -9   0  -3 20.0455 174.271  18
  -9   0  -2 99.2658 186.760  18
   9   0  -2 570.351 205.868  17
  -9   0  -1 6.25483 172.801  18
   9   0  -1 138.991 123.432  17
   9   0   0 1868.06 284.509  17
  -9   0   0 177.510 176.985  18
  -9   0   1-26.4861 166.937  18
  -9   0   2 112.025 210.115  18
  -9   0   3 241.980 193.969  18
  -9   0   4 207.381 272.119  19
  -9   0   5 72.9443 237.516  19
  -9   0   6 240.920 367.045  19
  -9   0   7-149.009 242.747  19
  -9   0   7-128.812 234.036  11
  -9   0   8 772.776 330.618  11
  -9   0   9-490.413 288.754  11
  -9   0  10 231.552 302.558   7
  -9   0  11 1.27710 323.213   7
  -9   0  12 218.505 311.374   7
  -9   0  13-14.7413 121.839   7
  -9  -1 -13 5336.55 506.140   4
   9   1 -13 4858.18 456.305   5
  -9   1 -13 4921.55 508.602  14
  -9   1 -12 95662.9 2703.88   4
  -9   1 -12 96809.3 2892.16  14
   9  -1 -12 91331.6 2431.81   5
   9   1 -12 96762.4 2678.32   5
  -9  -1 -11 5002.42 815.046  14
  -9   1 -11 4212.04 751.482   4
  -9  -1 -11 4563.72 867.020   4
   9  -1 -11 4847.41 713.704   5
   9   1 -11 4906.17 746.687   5
  -9   1 -10 142592. 4715.29   4
  -9  -1 -10 141527. 5191.16   4
  -9  -1 -10 149572. 4524.97  14
   9  -1 -10 152175. 4206.67   5
   9   1 -10 139066. 4184.48   5
   9  -1  -9 2557.75 611.038   5
   9   1  -9 1929.45 515.011   5
  -9  -1  -9 1154.26 516.443  14
  -9   1  -9 1773.04 599.034   4
  -9  -1  -9 2110.60 703.351   4
  -9   1  -8 58898.9 3221.88   4
  -9  -1  -8 56124.3 3433.41   4
  -9  -1  -8 57865.3 2944.85  14
   9  -1  -8 58477.1 2772.20   5
  -9  -1  -8 53785.1 3451.78   3
   9   1  -8 58157.7 2755.26   5
   9  -1  -7 2661.71 602.550   5
   9   1  -7 3256.21 645.177   5
  -9   1  -7 2118.28 536.247  18
  -9  -1  -7 4148.38 1085.56   3
  -9  -1  -7 1861.69 563.029  14
  -9  -1  -7 2641.99 660.896  13
  -9   1  -7 2824.40 717.135   4
  -9  -1  -7 2554.15 768.111   4
  -9  -1  -6 218158. 5259.46  13
  -9   1  -6 223288. 4783.26  18
  -9   1  -5 6583.93 814.260  18
  -9  -1  -5 6386.94 850.528  13
  -9  -1  -5 5950.16 634.769  18
  -9   1  -4 186458. 4060.90  18
  -9  -1  -4 188766. 3427.41  18
   9  -1  -4 190642. 4769.58  17
  -9  -1  -4 189630. 4190.68  13
  -9  -1  -3 7655.58 691.058  18
   9  -1  -3 7661.03 906.900  17
  -9  -1  -3 8313.95 797.461  13
  -9   1  -2 278087. 4547.15  18
  -9  -1  -2 295065. 4224.57  18
   9  -1  -2 301252. 5166.83  17
  -9  -1  -2 273637. 3933.33  13
  -9  -1  -2 295096. 5035.72  16
  -9   1  -1 28753.0 1377.80  18
  -9  -1  -1 30783.6 1391.45  18
   9  -1  -1 29839.3 1506.20  17
  -9  -1  -1 30446.0 1514.45  16
  -9   1   0 76034.3 2168.20  18
  -9  -1   0 77202.1 2281.49  18
  -9  -1   0 81999.9 2353.79  16
   9  -1   0 78371.2 2294.51  17
  -9  -1   1 30789.4 1527.56  18
  -9  -1   1 32628.8 1460.78  16
  -9   1   1 28284.5 1342.71  18
  -9  -1   2 253023. 4470.94  19
  -9   1   2 274894. 4361.76  18
  -9  -1   2 255640. 4645.14  18
  -9  -1   2 280598. 4440.53  16
  -9  -1   3 7395.44 821.533  19
  -9   1   3 8544.86 859.546  18
  -9  -1   3 8830.75 847.936  16
  -9  -1   4 173795. 4265.94  19
  -9   1   4 162956. 3936.77  18
  -9   1   5 4936.58 910.735  19
   9  -1   5 5421.43 763.180  19
  -9  -1   5 5345.16 816.866  19
   9  -1   6 211098. 4659.39  19
  -9  -1   6 211515. 5420.65  19
  -9   1   7 1652.68 577.769  19
  -9  -1   7 2741.76 694.036  19
   9  -1   7 2826.76 554.859  19
  -9  -1   7 2390.60 569.568   7
  -9  -1   7 3209.49 694.243  11
   9  -1   7 3402.44 864.151   6
  -9  -1   8 56443.9 2722.22   7
   9  -1   8 56570.3 3512.77   6
  -9  -1   8 58896.3 2928.99  11
  -9  -1   9 1753.13 509.839   7
  -9   1   9 1888.96 608.589   7
  -9  -1   9 2093.17 575.991  11
   9  -1   9 1235.97 529.942   6
  -9   1  10 154486. 4738.17   7
  -9  -1  10 145876. 4006.57  11
  -9  -1  11 4527.66 687.082   7
  -9   1  11 5402.34 881.607   7
  -9  -1  11 4954.16 614.833  11
  -9   1  12 89124.3 2821.08   7
  -9   1  13 4666.87 466.775   7
  -9  -2 -12 102272. 2461.91   2
  -9   2 -12 97246.0 2508.09  14
   9   2 -12 102278. 2339.60   5
   9   2 -11 2224.81 464.166   5
  -9  -2 -11 1939.52 456.185   4
  -9  -2 -10 84291.6 3403.96   4
   9   2 -10 89859.0 3071.89   5
   9  -2  -9 3649.25 665.184   5
   9   2  -9 3342.65 664.854   5
  -9  -2  -9 3044.17 718.727  14
  -9   2  -9 3008.26 708.308   8
  -9  -2  -9 3481.68 787.984   4
  -9   2  -8 97821.0 4385.50   8
  -9  -2  -8 106104. 4369.54   4
  -9  -2  -8 110729. 3935.09  14
   9  -2  -8 109112. 3661.75   5
   9   2  -8 113733. 3651.20   5
  -9  -2  -8 92309.9 4936.33   3
  -9  -2  -7 14132.6 2131.51   3
  -9   2  -7 14506.7 1752.65   8
  -9  -2  -7 15795.5 1722.45   4
  -9  -2  -7 17608.0 1582.73  14
   9  -2  -7 16704.8 1448.18   5
   9   2  -7 17758.5 1409.71   5
  -9  -2  -6 63168.5 4048.00   3
  -9   2  -6 75209.6 2929.46  18
  -9  -2  -6 71598.0 3634.75   4
  -9  -2  -6 76790.9 3176.39  14
  -9  -2  -6 75158.5 3232.25  13
   9  -2  -6 75996.8 3012.18   5
   9   2  -6 70815.5 2689.42   5
   9  -2  -5 1034.70 370.189   5
  -9   2  -5 1158.72 385.488  18
  -9  -2  -5 1004.71 405.708  13
  -9  -2  -5 106.805 598.359   3
  -9   2  -4 305493. 5541.00  18
  -9  -2  -4 294634. 5556.05  13
  -9   2  -3 1961.93 485.922  18
   9  -2  -3 2121.51 579.080  17
  -9  -2  -3 1781.97 494.883  16
  -9  -2  -3 1812.93 445.556  13
  -9   2  -2 244050. 4697.76  18
  -9  -2  -2 247286. 4141.90  18
  -9  -2  -2 239371. 5220.50  16
  -9   2  -1 16051.0 1133.19  18
  -9  -2  -1 16006.0 1085.61  18
   9  -2  -1 15939.3 1325.00  17
  -9  -2  -1 14722.5 1245.00  16
  -9   2   0 263127. 4303.34  18
   9  -2   0 269118. 5157.11  17
  -9  -2   0 264109. 5067.27  16
  -9   2   1 16101.4 1037.34  18
  -9  -2   1 15873.9 1254.94  16
  -9   2   2 257590. 4236.83  18
  -9  -2   2 258839. 5251.84  16
  -9  -2   3 1850.51 478.882  16
  -9  -2   4 292579. 5332.32  19
   9  -2   4 296802. 6180.00  19
  -9  -2   4 304398. 6201.96  16
  -9  -2   5 220.964 253.845  19
   9  -2   5 479.831 291.032  19
  -9  -2   5 1025.14 412.463  16
  -9  -2   5 414.827 261.722  11
   9  -2   5 781.255 476.743   6
  -9  -2   6 80440.4 3241.26  19
   9  -2   6 83093.1 3360.35  19
  -9   2   6 79889.6 3461.40   7
  -9  -2   6 88301.1 3470.89  16
   9  -2   6 90921.1 4410.63   6
  -9  -2   6 83918.8 3347.95  11
  -9   2   7 18360.7 1710.85   7
   9  -2   7 17552.4 2032.33   6
  -9  -2   7 16233.7 1547.07  11
  -9   2   8 104814. 4036.24   7
   9  -2   8 108798. 5021.25   6
  -9  -2   8 111780. 4061.10  11
  -9   2   9 3036.07 748.096   7
  -9  -2   9 3701.78 781.019  11
   9  -2   9 4046.12 1046.84   6
  -9   2  10 79701.9 3255.23   7
   9  -2  10 74444.4 3776.35   6
  -9  -2  10 84515.9 3080.49  11
  -9   2  11 1794.38 501.875   7
   9  -2  11 2142.75 582.824   6
  -9  -2  11 1831.69 410.508  11
  -9   2  12 96659.5 2315.33   7
  -9  -2  12 92866.6 1872.99  11
   9   3 -11-11.9288 51.2140   5
  -9  -3 -11 27.4939 186.077   2
   9   3 -10 1972.96 371.157   5
   9  -3 -10 2329.61 488.215   9
   9  -3 -10 1769.41 444.146  15
  -9  -3 -10 2198.05 504.495   2
   9  -3  -9 936.762 352.746   9
   9   3  -9 297.758 230.994   5
  -9   3  -9-407.464 340.296   8
   9  -3  -9 393.100 320.225  15
  -9  -3  -9 376.149 325.775   2
   9  -3  -8 4790.96 846.728   9
   9   3  -8 4564.07 659.985   5
  -9   3  -8 3431.88 829.405   8
  -9  -3  -8 2425.90 1201.85   3
  -9  -3  -8 4594.08 802.585   2
   9  -3  -7 5219.62 914.513   9
  -9   3  -7 5074.27 1092.99   8
  -9  -3  -7 5192.57 873.344   2
  -9  -3  -6 58505.3 3973.12   3
  -9   3  -6 58296.5 3590.72   8
  -9  -3  -6 65798.1 2928.18   2
  -9  -3  -6 61922.2 2847.81  12
  -9  -3  -6 68039.5 3010.59   1
   9  -3  -6 65583.7 3224.15   9
   9  -3  -5 7231.21 1113.96   9
  -9  -3  -5 6863.27 952.783   2
  -9  -3  -5 5616.75 1283.84   3
  -9  -3  -5 6599.00 977.950   1
  -9  -3  -5 5900.29 937.533  12
  -9  -3  -4 104820. 5028.57   3
  -9   3  -4 121566. 3824.13  18
   9  -3  -4 128343. 5131.14  17
  -9  -3  -4 119513. 3867.40   2
  -9  -3  -4 106062. 3817.03  12
  -9  -3  -4 111859. 3931.30   1
   9  -3  -4 114393. 4355.01   9
  -9  -3  -3 61057.3 3730.30   3
  -9   3  -3 68996.4 2827.20  18
  -9  -3  -3 66517.4 2812.74   2
   9  -3  -3 67705.7 3558.49  17
  -9  -3  -3 60394.9 3165.31  16
  -9  -3  -3 63817.7 3001.71  12
  -9  -3  -3 67989.5 3078.77   1
   9  -3  -3 67029.0 3289.08   9
   9  -3  -2 1263.86 495.072   9
  -9   3  -2 734.634 314.253  18
  -9  -3  -2 819.169 349.830  16
   9  -3  -2 1621.53 553.652  17
  -9  -3  -2 1098.93 583.681   3
  -9  -3  -2 491.922 266.777  12
  -9  -3  -2 686.018 353.043   1
  -9   3  -1 5911.21 736.327  18
   9  -3  -1 5798.41 951.035  17
  -9  -3  -1 5062.04 866.947  16
  -9  -3  -1 6816.41 1041.47   1
  -9  -3  -1 6352.37 965.929  12
  -9  -3  -1 5899.37 1090.51   3
   9  -3   0 7323.01 1034.53  17
  -9  -3   0 6219.69 955.580  16
  -9  -3   0 8707.66 1104.67  12
  -9  -3   0 6880.70 1127.35   3
   9  -3   1 6460.05 962.167  17
  -9  -3   1 5403.37 885.767  16
  -9  -3   1 6159.83 908.882  12
  -9  -3   1 5427.53 1010.58   3
  -9  -3   1 6211.22 1016.08   1
   9  -3   2 979.720 506.643   9
  -9  -3   2 1455.36 474.357  16
  -9  -3   2 1850.77 571.605   1
  -9  -3   2 1382.62 428.264  12
   9  -3   2 1209.65 487.424   6
  -9  -3   3 64755.2 3139.05  16
  -9  -3   3 65510.6 2813.55  12
   9  -3   3 67510.4 3568.42   6
  -9  -3   3 60437.1 2716.01  11
   9  -3   3 65245.0 3546.03  10
   9  -3   3 64324.2 3289.26   9
  -9  -3   4 114151. 4270.82  16
  -9  -3   4 109327. 3589.69  12
   9  -3   4 108733. 4691.75   6
  -9  -3   4 107522. 3712.13  11
   9  -3   4 115409. 4855.57  10
  -9   3   5 6341.32 897.989   7
  -9  -3   5 7261.35 998.892  11
   9  -3   5 7009.03 1239.87   6
   9  -3   5 6633.32 1204.80  10
  -9   3   6 73818.0 3045.40   7
   9  -3   6 71327.3 3951.28   6
  -9  -3   6 68636.8 3057.32  11
   9  -3   6 68975.8 3753.06  10
  -9   3   7 4929.31 807.032   7
  -9  -3   7 5371.75 881.223  11
   9  -3   7 4718.47 1048.23   6
   9  -3   7 5354.02 1028.80  10
  -9   3   8 4429.94 752.368   7
   9  -3   8 4325.20 1023.94   6
  -9  -3   8 5022.69 839.203  11
  -9   3   9 600.195 289.937   7
   9  -3   9-28.7923 320.904   6
  -9  -3   9 493.591 367.280  11
  -9   3  10 3227.74 476.780   7
   9  -3  10 2423.11 620.821   6
  -9  -3  10 2885.99 531.185  11
  -9   3  11 399.919 110.743   7
   9  -3  11 268.674 164.492   6
  -9  -3  11 116.032 112.124  11
  -9  -4 -10 53673.3 1448.89   2
   9  -4  -9 970.695 286.070   9
   9  -4  -9 997.173 313.705  15
  -9  -4  -9 1843.88 388.430   2
  -9  -4  -8 58624.8 2229.59   2
  -9   4  -8 57927.5 2711.54   8
   9  -4  -8 54621.1 2363.34  15
   9  -4  -8 52624.4 2243.96   9
   9  -4  -7 1056.01 441.619   9
  -9  -4  -7-415.052 1201.01   3
  -9   4  -7 1537.65 602.672   8
   9  -4  -7 1803.61 536.152  15
  -9  -4  -7 1384.46 441.411   2
  -9  -4  -7 1473.05 436.275   1
  -9  -4  -6 69601.0 3946.69   3
  -9  -4  -6 78366.7 2972.15   2
  -9   4  -6 72683.6 3612.30   8
  -9  -4  -6 77625.1 3110.89   1
   9  -4  -6 74426.6 3207.87  15
   9  -4  -6 75727.4 3225.15   9
   9  -4  -5 3778.96 833.194   9
   9  -4  -5 3200.94 707.207  15
  -9  -4  -5 3822.73 1373.62   3
  -9  -4  -5 3276.15 728.801   1
  -9  -4  -5 2675.39 605.173  12
  -9  -4  -5 3523.04 688.809   2
  -9  -4  -4 85824.6 4402.49   3
  -9  -4  -4 92393.9 3347.73   2
   9  -4  -4 91543.8 3651.14  15
  -9  -4  -4 91759.2 3709.21   1
  -9  -4  -4 85408.8 3346.26  12
   9  -4  -4 91466.5 3866.71   9
   9  -4  -3 267.894 300.099  15
  -9  -4  -3-449.082 564.062   3
  -9  -4  -3-162.953 316.736   1
  -9  -4  -3 93.6032 223.885  12
  -9  -4  -3-316.183 308.636   2
  -9  -4  -2 31496.8 1945.74   2
  -9  -4  -2 26687.6 2428.59   3
   9  -4  -2 30240.1 2040.03  15
  -9  -4  -2 30686.8 2262.31   1
  -9  -4  -2 29627.5 2106.98  12
   9  -4  -2 32130.3 2346.52   9
   9  -4  -1 2194.30 694.847   9
  -9  -4  -1 1983.24 665.198   1
  -9  -4  -1 1555.56 465.329   2
  -9  -4  -1 925.503 533.880   3
  -9  -4  -1 1435.36 505.005  12
  -9  -4   0 112926. 4726.11   3
  -9  -4   0 116485. 4457.97   1
  -9  -4   0 120603. 4291.99  12
  -9  -4   0 113709. 3576.21   2
   9  -4   0 114796. 4469.30   9
   9  -4   1 1628.91 633.081   9
  -9  -4   1 1991.86 585.826  12
  -9  -4   1 1451.17 602.178   3
  -9  -4   1 833.264 443.763   1
   9  -4   1 1700.63 696.906  10
  -9  -4   2 28876.2 2141.27   1
  -9  -4   2 30000.5 2317.60   3
  -9  -4   2 30659.5 2097.65  12
   9  -4   2 30735.2 2512.07  10
   9  -4   2 30387.7 2342.31   9
   9  -4   3-336.104 392.963   9
  -9  -4   3-311.526 279.692  12
  -9  -4   3-457.717 326.014   3
   9  -4   3-116.537 185.926   6
  -9  -4   4 85773.1 3606.03   3
  -9  -4   4 86434.7 3315.59  12
   9  -4   4 84936.1 3924.91   6
  -9  -4   4 84605.4 3047.65  11
   9  -4   4 83269.1 4090.20  10
  -9  -4   5 3878.64 695.058  12
  -9  -4   5 3635.21 734.107   3
  -9  -4   5 3110.43 603.658  11
   9  -4   5 3904.18 865.985   6
   9  -4   5 2655.37 797.007  10
  -9  -4   6 79211.1 2793.67  12
   9  -4   6 76090.5 3685.14   6
  -9  -4   6 73495.7 2825.60  11
   9  -4   6 75495.9 3660.45  10
   9  -4   7 1809.59 614.555   6
  -9  -4   7 1871.52 502.331  11
   9  -4   7 1212.05 476.181  10
   9  -4   8 53736.5 2723.03   6
  -9  -4   8 52213.3 2127.85  11
   9  -4   9 1703.05 447.960   6
  -9  -4   9 1522.77 346.398  11
   9  -4  10 54357.1 1777.49   6
  -9  -4  10 54118.4 1400.70  11
   9  -5  -7 759.969 257.207   9
  -9   5  -7 418.194 195.335   8
   9  -5  -7 902.284 270.490  15
  -9  -5  -7 905.403 264.302   2
  -9  -5  -6 58508.1 2042.87   1
  -9   5  -6 58492.6 2317.19   8
   9  -5  -6 62583.7 2175.57  15
  -9  -5  -6 61231.5 1964.67   2
   9  -5  -6 57761.0 2156.97   9
   9  -5  -5 4729.16 709.329   9
  -9   5  -5 5344.57 780.520   8
  -9  -5  -5 4787.64 695.552   1
  -9  -5  -5 2697.19 847.987   3
   9  -5  -5 4550.57 646.378  15
   9  -5  -5 4855.49 704.894  10
  -9  -5  -5 5118.54 650.828   2
  -9   5  -4 83147.4 3206.90   8
   9  -5  -4 86528.6 2834.71  15
  -9  -5  -4 87555.2 2653.82  12
  -9  -5  -4 86706.0 3094.49   1
   9  -5  -4 86705.2 3141.24  10
  -9  -5  -4 86676.0 2691.60   2
   9  -5  -4 85474.7 3136.93   9
  -9  -5  -4 83002.1 3407.98   3
  -9  -5  -3 2062.02 601.792   1
   9  -5  -3 1981.25 586.053   9
  -9  -5  -3 2025.07 455.486   2
  -9   5  -3 1604.01 483.955   8
   9  -5  -3 2059.50 471.724  15
  -9  -5  -3 2550.65 1011.97   3
  -9  -5  -3 1405.58 433.636  12
   9  -5  -3 1905.12 525.326  10
  -9  -5  -2 92473.8 3700.13   3
  -9  -5  -2 91324.1 3494.14   1
   9  -5  -2 96892.7 2936.71  15
  -9  -5  -2 97692.9 3286.15  12
   9  -5  -2 97709.5 3735.93  10
   9  -5  -2 96268.5 3660.20   9
   9  -5  -1 2525.22 690.543   9
  -9  -5  -1 2510.59 729.842   3
  -9  -5  -1 2565.70 590.919  12
  -9  -5  -1 2261.94 615.988   1
   9  -5  -1 2110.04 573.868  10
  -9  -5   0 180030. 4933.65   3
  -9  -5   0 177158. 4878.58   1
  -9  -5   0 185941. 4757.37  12
   9  -5   0 191939. 5549.63  10
   9  -5   0 184460. 5268.37   9
   9  -5   1 2246.79 672.118   9
  -9  -5   1 2399.96 617.435   1
  -9  -5   1 2539.21 610.577  12
   9  -5   1 2569.74 691.417  10
  -9  -5   2 97361.4 3346.66  12
   9  -5   2 95413.8 3929.15  10
   9  -5   2 98802.9 3801.88   9
  -9  -5   3 1848.77 481.476  12
   9  -5   3 927.582 486.056  10
  -9  -5   4 89469.5 2904.23  12
   9  -5   4 90440.8 3580.77  10
  -9  -5   5 4983.51 638.216  12
   9  -5   5 5483.24 853.487  10
  -9  -5   6 61362.7 1782.97  12
   9  -5   6 62589.8 2494.98  10
   9  -6  -2 1751.50 332.771   9
  -9  -6  -1-42.0450 125.148  12
  -9  -6   0 6383.23 562.134  12
   9  -6   0 4938.33 549.460  10
  -9  -6   1-190.040 180.797  12
   9  -6   1 296.774 197.534  10
  -9  -6   2 768.659 205.916  12
   9  -6   2 1294.99 289.730  10
 -10   0 -13 4248.39 409.824   4
 -10   0 -12 74057.4 2600.13   4
 -10   0 -12 78987.0 2441.89  14
  10   0 -12 79098.4 2290.98   5
  10   0 -11 954.218 382.887   5
 -10   0 -11 1088.64 456.332  14
 -10   0 -11 822.809 442.651   4
 -10   0 -10 91907.7 4162.03   4
 -10   0 -10 98019.6 3598.41  14
  10   0 -10 100443. 3470.97   5
 -10   0  -9 8827.32 1392.58   4
 -10   0  -9 10149.1 1213.61  14
  10   0  -9 9590.43 1157.89   5
 -10   0  -8 116545. 5040.21   4
  10   0  -8 126714. 4134.91   5
  10   0  -7 1669.23 484.768   5
 -10   0  -7 2161.20 701.272   4
 -10   0  -6 232795. 4719.59  18
 -10   0  -6 227313. 6903.03   4
  10   0  -6 245182. 5400.63   5
 -10   0  -5 39608.4 1885.58  18
 -10   0  -4 337373. 5287.06  18
 -10   0  -3 5380.19 658.377  18
 -10   0  -2 375428. 5174.66  18
 -10   0  -1 49593.3 1824.45  18
 -10   0   0 458460. 5562.38  18
 -10   0   1 47902.4 1857.14  18
 -10   0   2 367876. 5547.23  18
 -10   0   3 5735.26 770.799  18
 -10   0   4 330393. 6447.68  19
 -10   0   5 37999.7 2317.01  19
 -10   0   6 227109. 6046.40  19
 -10   0   6 238316. 5665.34   7
 -10   0   7 1687.82 591.583  19
 -10   0   7 999.933 465.739   7
 -10   0   7 1360.21 426.951  11
 -10   0   8 130250. 4323.72   7
 -10   0   8 141415. 4081.44  11
 -10   0   9 9031.55 1177.77   7
 -10   0   9 8920.94 956.360  11
 -10   0  10 88380.7 3448.54   7
 -10   0  11 56.1134 286.853   7
 -10   0  12 75537.8 2272.28   7
 -10  -1 -12 40494.5 1845.21   4
 -10   1 -12 40449.2 1689.69  14
 -10   1 -12 42372.5 1599.65   4
  10   1 -12 40749.3 1596.83   5
 -10   1 -11 6179.30 836.508   4
 -10  -1 -11 6330.43 827.773  14
 -10   1 -11 5015.85 761.037  14
 -10  -1 -11 5088.03 890.404   4
  10  -1 -11 5764.70 724.350   5
  10   1 -11 5384.15 731.665   5
 -10   1 -10 37286.2 2343.12   4
 -10  -1 -10 30424.5 2387.60   4
 -10  -1 -10 36977.1 2154.08  14
  10  -1 -10 38009.8 2055.93   5
  10   1 -10 36576.7 2067.21   5
  10  -1  -9 1141.23 449.097   5
  10   1  -9 1601.42 506.765   5
 -10  -1  -9 1513.65 567.558  14
 -10   1  -9 1408.48 557.477   4
 -10  -1  -9 1288.26 587.356   4
 -10   1  -8 88929.0 3999.36   4
 -10  -1  -8 88451.1 3530.26  14
  10  -1  -8 95797.0 3536.96   5
  10   1  -8 91595.5 3400.99   5
  10  -1  -7 2294.63 544.196   5
  10   1  -7 2195.64 517.248   5
 -10   1  -7 2460.78 596.492  18
 -10  -1  -7 3939.49 1156.44   3
 -10  -1  -7 2126.41 588.146  14
 -10   1  -7 2238.72 711.332   4
 -10  -1  -7 1765.77 731.594   4
 -10   1  -6 45614.7 2283.46  18
 -10   1  -6 41062.1 2697.61   4
 -10  -1  -6 44146.0 2351.91  14
 -10  -1  -6 40645.7 3019.63   4
 -10  -1  -6 46670.1 2460.28  13
  10  -1  -6 49514.5 2457.80   5
  10   1  -6 45805.3 2281.54   5
 -10   1  -5 2309.27 523.127  18
 -10  -1  -5 3093.18 626.435  13
 -10   1  -4 51069.3 2251.03  18
 -10  -1  -4 52869.7 1909.28  18
 -10  -1  -4 53805.1 2223.10  13
 -10   1  -3 6967.69 818.110  18
  10  -1  -3 7152.79 890.459  17
 -10  -1  -3 6360.50 685.022  13
 -10  -1  -3 6243.24 665.225  18
 -10   1  -2 155866. 3573.06  18
 -10  -1  -2 149718. 3208.17  18
  10  -1  -2 159268. 3848.96  17
 -10   1  -1 1236.69 339.988  18
 -10  -1  -1 1356.63 339.313  18
  10  -1  -1 1034.29 311.007  17
 -10  -1  -1 1087.73 337.461  16
 -10   1   0 38995.3 1650.47  18
 -10  -1   0 37546.8 1715.17  18
  10  -1   0 41330.2 1749.47  17
 -10  -1   0 42077.1 1798.36  16
 -10  -1   1 1005.61 317.936  19
 -10   1   1 1099.51 326.535  18
 -10  -1   1 1129.13 364.865  18
 -10  -1   1 1035.50 290.367  16
 -10  -1   2 146772. 3626.77  19
 -10  -1   2 153865. 3848.65  18
 -10  -1   3 6901.61 836.738  19
 -10   1   3 7634.22 867.101  18
 -10  -1   4 46171.2 2311.00  19
 -10   1   4 49105.7 2311.17  18
 -10   1   5 2486.46 670.600  19
 -10  -1   5 2334.43 607.621  19
 -10   1   6 40836.7 2719.38  19
 -10  -1   6 40649.9 2454.25  19
  10  -1   6 38393.6 2112.13  19
 -10   1   6 42623.8 2502.64   7
  10  -1   6 43245.7 3063.81   6
 -10  -1   6 43496.0 2404.63  11
 -10  -1   7 2508.28 689.330  19
 -10  -1   7 2007.02 522.852   7
 -10   1   7 2085.31 640.853   7
 -10  -1   7 1717.39 533.238  11
  10  -1   7 3515.31 939.886   6
 -10  -1   8 85043.6 3334.67   7
 -10   1   8 85160.7 3591.08   7
  10  -1   8 80746.0 4305.13   6
 -10  -1   8 95003.2 3666.26  11
 -10  -1   9 1153.23 449.626   7
 -10   1   9 1461.11 547.838   7
 -10  -1   9 1671.84 503.427  11
  10  -1   9 798.545 456.715   6
 -10  -1  10 33240.5 1873.16   7
 -10   1  10 36121.1 2265.02   7
 -10  -1  10 35504.0 1902.55  11
 -10   1  11 5600.60 830.559   7
 -10  -1  11 6112.42 631.431  11
 -10   1  12 47059.7 1840.10   7
 -10  -2 -12 13585.5 797.776   2
 -10   2 -12 12733.6 790.577  14
  10   2 -12 13319.4 724.176   5
  10   2 -11 1032.82 298.767   5
 -10  -2 -11 794.079 295.125   4
 -10  -2 -10 8572.51 1070.49   4
  10   2 -10 10425.9 995.471   5
  10   2  -9 1639.75 469.514   5
 -10  -2  -9 1287.32 518.832   4
 -10   2  -8 22606.4 1968.90   8
 -10  -2  -8 21371.9 1985.10   4
  10   2  -8 23612.5 1620.20   5
 -10  -2  -8 21130.0 2397.26   3
  10  -2  -7 1438.98 509.336   5
  10   2  -7 1635.60 474.768   5
 -10  -2  -7 1751.58 1278.00   3
 -10  -2  -7 2154.45 577.623  14
 -10   2  -7 1730.90 617.886   8
 -10  -2  -7 1362.01 600.918   4
 -10  -2  -6 79830.3 4520.78   3
 -10  -2  -6 86764.4 3308.50  14
 -10  -2  -6 81225.8 4040.62   4
 -10  -2  -6 88842.2 3442.09  13
  10  -2  -6 87719.4 3253.04   5
  10   2  -6 83077.3 2899.70   5
 -10  -2  -5 16260.8 2049.56   3
 -10   2  -5 18775.2 1485.52  18
 -10  -2  -5 15493.5 1783.58   4
 -10  -2  -5 18163.1 1486.41  13
 -10  -2  -5 18123.8 1575.49  12
 -10  -2  -4 80639.5 4279.63   3
 -10   2  -4 81521.7 3034.90  18
  10  -2  -4 79880.9 3621.91  17
 -10  -2  -4 75434.3 2821.39  13
 -10  -2  -4 77375.0 3196.81  12
 -10   2  -3 8570.77 981.742  18
  10  -2  -3 7679.01 1086.30  17
 -10   2  -2 28268.0 1671.93  18
 -10  -2  -2 28784.7 1503.49  18
  10  -2  -2 28042.5 1907.15  17
 -10  -2  -2 25510.0 1754.67  16
 -10   2  -1 11132.3 994.517  18
  10  -2  -1 10048.3 1095.50  17
 -10  -2  -1 10846.2 1115.85  16
 -10  -2  -1 10981.5 962.359  18
 -10   2   0 49551.9 1982.26  18
  10  -2   0 52926.4 2375.94  17
 -10  -2   0 51411.4 2371.96  16
 -10   2   1 10649.0 895.379  18
 -10  -2   1 10399.7 1075.96  16
 -10   2   2 28736.4 1466.05  18
 -10  -2   2 29935.8 1830.96  16
 -10  -2   3 8188.64 1007.83  16
 -10  -2   4 89074.9 3399.84  16
  10  -2   4 92737.0 4345.85   6
 -10  -2   4 81564.2 3203.79  11
 -10   2   5 18320.4 1666.96   7
 -10  -2   5 19320.4 1633.06  16
  10  -2   5 18480.9 2013.97   6
 -10  -2   5 17044.1 1505.97  11
 -10   2   6 78073.2 3474.99   7
  10  -2   6 79234.0 4254.13   6
 -10  -2   6 78085.3 3280.18  11
 -10   2   7 904.911 454.613   7
 -10  -2   7 2072.54 645.543  11
  10  -2   7 1887.44 738.583   6
 -10   2   8 20061.9 1760.03   7
  10  -2   8 21629.1 2281.29   6
 -10  -2   8 22315.0 1799.33  11
 -10   2   9 2014.10 635.446   7
 -10  -2   9 2186.79 584.487  11
  10  -2   9 1190.64 538.517   6
 -10   2  10 10727.4 1157.55   7
  10  -2  10 8443.25 1228.71   6
 -10  -2  10 11103.4 1072.04  11
 -10   2  11 988.400 359.970   7
  10  -2  11 683.400 309.027   6
 -10  -2  11 1157.89 293.977  11
 -10   2  12 13192.5 746.709   7
 -10  -3 -11 3525.38 412.203   2
 -10   3 -11 3359.15 397.519  14
  10  -3 -10 61734.1 2158.11  15
  10   3 -10 65105.1 1778.50   5
  10   3  -9 252.972 178.839   5
  10  -3  -9-21.4826 175.393   9
 -10   3  -9 152.903 254.650   8
  10  -3  -9 173.269 239.414  15
 -10  -3  -9 125.943 285.608   2
 -10   3  -8 93342.3 3881.57   8
 -10  -3  -8 87783.8 3088.06   2
 -10  -3  -8 85753.0 4376.08   3
  10  -3  -8 87702.6 3129.56   9
 -10   3  -7 7045.06 1194.88   8
 -10  -3  -7 7257.34 951.266   2
  10  -3  -7 7258.97 1017.56   9
 -10  -3  -6 190351. 7005.79   3
 -10   3  -6 196164. 6379.69   8
 -10  -3  -6 205977. 4992.31   2
  10  -3  -6 210940. 5565.45   9
 -10  -3  -5 13971.7 1934.99   3
 -10  -3  -5 13702.1 1406.59   1
 -10  -3  -5 13761.6 1316.48   2
 -10  -3  -5 12482.8 1303.78  12
  10  -3  -5 13910.5 1520.22   9
 -10  -3  -4 196054. 6952.97   3
 -10  -3  -4 212527. 5043.35   2
 -10  -3  -4 201785. 5411.28   1
 -10  -3  -4 200126. 5307.98  12
  10  -3  -4 218304. 5902.40   9
 -10  -3  -3 12088.4 1725.93   3
 -10   3  -3 13195.8 1274.76  18
 -10  -3  -3 13388.5 1247.14   2
  10  -3  -3 12383.6 1510.64  17
 -10  -3  -3 13414.3 1423.35   1
 -10  -3  -3 12289.3 1366.32  12
  10  -3  -3 14456.4 1541.48   9
 -10  -3  -2 138741. 5449.97   3
 -10   3  -2 138397. 3908.23  18
  10  -3  -2 134602. 4739.90  17
 -10  -3  -2 120637. 4378.41  16
 -10  -3  -2 135347. 4526.01   1
 -10  -3  -2 139750. 4578.14  12
  10  -3  -2 143116. 4687.17   9
  10  -3  -1 1316.48 546.244   9
 -10  -3  -1 996.415 448.064   1
 -10   3  -1 1244.92 367.689  18
  10  -3  -1 1091.70 472.378  17
 -10  -3  -1 1060.89 416.996  16
 -10  -3  -1 1176.47 474.105  12
 -10  -3  -1 1094.38 516.465   3
 -10  -3   0 229942. 6133.50   1
 -10  -3   0 215935. 6338.40   3
  10  -3   0 217621. 5594.87  17
 -10  -3   0 213018. 5640.38  16
 -10  -3   0 221021. 5653.90  12
  10  -3   0 215410. 5739.60   9
  10  -3   1 1116.13 524.404   9
  10  -3   1 773.963 410.152  17
 -10  -3   1 854.705 356.986  16
 -10  -3   1 1555.93 503.856  12
 -10  -3   1 1817.98 580.476   1
 -10  -3   1 1184.78 509.288   3
  10  -3   1 789.438 453.796   6
 -10  -3   2 134416. 4686.03   1
 -10  -3   2 135683. 4488.68  16
 -10  -3   2 130891. 4127.60  12
  10  -3   2 132667. 5063.27   6
  10  -3   2 149947. 5252.45  10
  10  -3   2 129552. 4585.17   9
 -10  -3   3 14120.7 1474.63  16
 -10  -3   3 13228.4 1300.57  12
  10  -3   3 12321.9 1575.06   6
 -10  -3   3 11531.0 1214.18  11
  10  -3   3 13604.6 1607.84  10
  10  -3   3 12527.8 1459.29   9
 -10   3   4 227084. 5089.43   7
 -10  -3   4 216845. 5118.60  12
  10  -3   4 226062. 6879.75   6
 -10  -3   4 216045. 5296.20  11
  10  -3   4 230420. 6692.44  10
 -10   3   5 15186.5 1356.99   7
  10  -3   5 15502.9 1840.91   6
 -10  -3   5 15513.2 1450.46  11
  10  -3   5 15562.6 1742.71  10
 -10   3   6 212307. 5036.68   7
  10  -3   6 177858. 6288.10   6
 -10  -3   6 191950. 5106.69  11
  10  -3   6 219800. 6239.57  10
 -10   3   7 8257.55 1003.69   7
 -10  -3   7 7185.34 998.230  11
  10  -3   7 7641.40 1335.88   6
 -10   3   8 90386.2 3056.59   7
  10  -3   8 79373.7 3974.05   6
 -10  -3   8 87876.9 3273.13  11
 -10   3   9 604.687 253.331   7
 -10  -3   9 93.2689 247.102  11
 -10   3  10 66363.5 1871.97   7
  10  -3  10 65255.7 2782.77   6
 -10  -3  10 65768.5 2171.29  11
 -10  -3  11 3485.51 372.380  11
  10  -3  11 3077.59 440.608   6
  10  -4  -9 1360.44 309.853  15
 -10  -4  -9 1341.60 295.023   2
 -10  -4  -8 40826.7 1686.71   2
 -10   4  -8 44633.1 2146.98   8
  10  -4  -8 42394.4 1950.87  15
  10  -4  -8 39519.7 1730.03   9
  10  -4  -7 811.061 368.480   9
 -10   4  -7 278.876 348.620   8
 -10  -4  -7-31.4605 1085.03   3
  10  -4  -7 937.734 402.225  15
 -10  -4  -7 841.487 365.499   2
 -10  -4  -6 57167.0 3513.32   3
 -10  -4  -6 55463.8 2321.03   2
 -10  -4  -6 57437.7 2576.00   1
 -10   4  -6 58951.1 3077.31   8
  10  -4  -6 57150.3 2718.72  15
  10  -4  -6 55942.6 2605.74   9
 -10  -4  -5 11382.3 1107.71   2
 -10   4  -5 11271.5 1442.27   8
  10  -4  -5 12149.7 1313.20  15
 -10  -4  -5 12046.4 1846.45   3
 -10  -4  -5 11761.7 1153.41  12
 -10  -4  -5 12064.2 1292.32   1
  10  -4  -5 12145.6 1317.51   9
 -10  -4  -4 69142.0 2726.62   2
 -10  -4  -4 62632.0 3709.48   3
 -10  -4  -4 66109.9 3123.86   1
  10  -4  -4 66170.3 3042.70  15
 -10  -4  -4 61631.2 2797.05  12
  10  -4  -4 68398.6 3218.14   9
  10  -4  -3 4739.79 935.443   9
 -10  -4  -3 3705.56 815.638   1
  10  -4  -3 4211.44 778.839  15
 -10  -4  -3 2761.35 848.447   3
 -10  -4  -3 3614.41 657.922   2
 -10  -4  -3 3483.66 723.343  12
 -10  -4  -2 52530.6 3356.53   3
 -10  -4  -2 58902.8 3111.94   1
  10  -4  -2 56173.0 2707.83  15
 -10  -4  -2 55239.0 2889.52  12
  10  -4  -2 59842.8 3157.43   9
 -10  -4  -2 54227.3 2420.81   2
  10  -4  -1 4706.89 937.247   9
 -10  -4  -1 5034.96 733.756   2
 -10  -4  -1 5154.44 1086.56   3
 -10  -4  -1 4166.54 837.538  12
 -10  -4  -1 4666.19 929.538   1
 -10  -4   0 19567.4 1851.17   1
 -10  -4   0 19209.8 1960.33   3
 -10  -4   0 21082.0 1802.34  12
  10  -4   0 22809.5 2100.39  10
  10  -4   0 20555.0 1897.59   9
  10  -4   1 4549.56 938.466   9
 -10  -4   1 4340.34 926.869   1
 -10  -4   1 4668.68 850.912  12
 -10  -4   1 4254.64 925.550   3
  10  -4   1 5294.22 1031.56  10
 -10  -4   2 58934.8 3217.45   3
 -10  -4   2 58553.2 2858.79  12
  10  -4   2 60491.9 3152.14   6
  10  -4   2 61716.2 3461.39  10
  10  -4   2 57060.8 3125.10   9
  10  -4   3 3459.00 806.314   9
 -10  -4   3 3662.49 722.133  12
 -10  -4   3 3453.59 763.627   3
  10  -4   3 4308.36 858.255   6
  10  -4   3 4021.19 924.373  10
 -10  -4   4 66187.5 3142.79   3
 -10  -4   4 65951.7 2854.87  12
  10  -4   4 65206.7 3406.12   6
 -10  -4   4 64191.9 2517.39  11
  10  -4   4 65638.0 3479.17  10
 -10  -4   5 11790.4 1273.17   3
 -10  -4   5 13381.1 1195.17  12
  10  -4   5 11850.9 1433.07   6
 -10  -4   5 11327.4 1088.85  11
  10  -4   5 11411.3 1424.95  10
 -10  -4   6 58042.1 2537.44   3
  10  -4   6 54794.6 3015.46   6
 -10  -4   6 56973.9 2361.68  11
  10  -4   6 60535.6 3002.74  10
  10  -4   7 412.461 400.516   6
 -10  -4   7 722.129 318.043  11
  10  -4   7 791.172 361.621  10
  10  -4   8 38456.9 2146.03   6
 -10  -4   8 37978.6 1647.55  11
  10  -4   9 1181.44 351.470   6
 -10  -4   9 979.467 245.064  11
 -10   5  -6 4458.74 588.898   8
  10  -5  -6 5006.03 561.261  15
 -10  -5  -6 4705.70 494.954   2
  10  -5  -6 4304.29 538.335   9
  10  -5  -5 95.6003 199.301   9
 -10   5  -5 684.516 299.540   8
  10  -5  -5 660.211 254.464  15
 -10  -5  -5 406.925 233.482   2
 -10  -5  -5 685.285 313.546   1
  10  -5  -5 732.533 296.918  10
 -10  -5  -4 9310.85 987.715   1
 -10   5  -4 9713.19 1035.46   8
  10  -5  -4 10310.1 906.295  15
 -10  -5  -4 9969.59 871.211  12
 -10  -5  -4 9175.49 805.827   2
  10  -5  -4 11219.1 1105.20  10
  10  -5  -4 9265.76 982.921   9
 -10  -5  -4 10348.4 1381.01   3
  10  -5  -3-42.0439 346.045   9
 -10   5  -3-436.424 339.356   8
  10  -5  -3 162.216 163.077  15
 -10  -5  -3 978.343 818.909   3
 -10  -5  -3-350.553 359.380  12
 -10  -5  -3-22.4122 268.818   1
  10  -5  -3-51.3538 258.599  10
  10  -5  -2 1818.16 564.855   9
 -10  -5  -2 1400.87 494.962   1
 -10  -5  -2 1202.57 416.743  12
  10  -5  -2 1704.88 528.907  10
  10  -5  -1 549.098 346.704   9
 -10  -5  -1 1091.96 586.576   3
 -10  -5  -1 232.153 329.969   1
 -10  -5  -1 563.985 290.762  12
  10  -5  -1 336.998 346.380  10
 -10  -5   0 20830.0 1611.08   1
 -10  -5   0 21334.8 1683.76   3
 -10  -5   0 22166.1 1596.51  12
  10  -5   0 23034.1 1848.62  10
  10  -5   0 21578.8 1724.59   9
  10  -5   1 80.9524 287.098   9
 -10  -5   1 402.064 414.440   3
 -10  -5   1 320.688 275.242  12
  10  -5   1 345.521 405.640  10
 -10  -5   2 1194.04 401.928  12
  10  -5   2 1405.18 518.133  10
 -10  -5   3-406.208 283.186  12
  10  -5   3-175.783 254.220  10
 -10  -5   4 10062.8 923.343  12
  10  -5   4 9128.78 1064.49  10
 -10  -5   5 1046.48 272.869  12
  10  -5   5-30.1750 208.589  10
  10  -5   6 5829.65 678.342  10
  11   0 -12 391.485 206.624   5
 -11   0 -12 330.415 204.771  14
 -11   0 -12 286.434 190.697   4
  11   0 -11-91.7329 201.788   5
 -11   0 -11-312.644 272.446  14
  11   0 -10 269.386 341.350   5
 -11   0 -10 197.156 228.629  14
 -11   0 -10 710.417 473.000   4
  11   0  -9 146.781 295.741   5
 -11   0  -9 123.019 276.137  14
 -11   0  -9-239.202 381.297   4
  11   0  -8-12.2713 255.856   5
 -11   0  -8-99.0790 234.294  14
 -11   0  -8 245.981 371.630   4
  11   0  -7-284.582 320.456   5
 -11   0  -7-230.812 270.092  14
 -11   0  -7-147.194 400.159   4
  11   0  -6-170.287 256.857   5
 -11   0  -6 591.321 342.923  18
 -11   0  -6 547.637 424.281   4
 -11   0  -5-4.06280 179.035  18
 -11   0  -5-379.615 326.543   4
 -11   0  -4-9.54654 203.159  18
 -11   0  -3 121.506 196.614  18
 -11   0  -2-78.6477 185.601  18
 -11   0  -1 106.122 201.069  18
 -11   0   0 229.837 230.842  18
 -11   0   1 195.859 194.696  18
 -11   0   2 53.6196 196.407  18
 -11   0   3 235.681 256.122  18
 -11   0   4 167.696 273.089  19
 -11   0   5 151.474 299.746  19
 -11   0   6 288.873 331.982  19
 -11   0   6 751.066 347.586  11
 -11   0   7-571.130 402.639   7
 -11   0   7-991.426 413.098  11
 -11   0   8-126.435 260.646   7
 -11   0   8 158.798 272.410  11
 -11   0   9-444.783 368.663   7
 -11   0   9 203.702 201.604  11
 -11   0  10 2.52397 222.485   7
 -11   0  11 23.3558 231.519   7
 -11   0  12 76.0052 147.847   7
 -11   1 -12 25229.3 1015.19   4
 -11  -1 -12 27253.6 1305.19   4
 -11   1 -12 26147.2 1177.21  14
  11   1 -12 26085.4 1124.58   5
 -11   1 -11 4838.65 668.602   4
 -11  -1 -11 5036.08 684.463  14
 -11   1 -11 5003.76 687.377  14
 -11  -1 -11 4008.64 737.877   4
  11  -1 -11 4193.12 580.023   5
  11   1 -11 5287.71 662.293   5
 -11   1 -10 67714.6 2963.12   4
 -11  -1 -10 70505.8 2747.61  14
 -11   1 -10 63958.2 2697.76  14
  11  -1 -10 69083.9 2628.49   5
  11   1 -10 70214.2 2678.48   5
 -11   1  -9 11577.8 1400.15   4
 -11  -1  -9 8885.05 1367.82   4
 -11  -1  -9 11493.4 1209.49  14
  11  -1  -9 11042.1 1164.63   5
  11   1  -9 10842.9 1146.13   5
 -11   1  -8 82643.5 3839.24   4
 -11  -1  -8 90567.6 3422.75  14
  11  -1  -8 94793.6 3458.78   5
  11   1  -8 85506.5 3245.53   5
  11   1  -7 4733.14 767.643   5
 -11  -1  -7 4709.64 801.491  14
 -11   1  -7 4689.45 978.198   4
 -11  -1  -7 3273.11 988.478   4
  11  -1  -7 6172.76 923.526   5
 -11   1  -6 223846. 5168.25  18
 -11   1  -6 206589. 6162.27   4
 -11  -1  -6 209985. 5047.78  14
  11  -1  -6 228192. 5369.85   5
  11   1  -6 203349. 4839.93   5
  11  -1  -5 2992.18 638.954   5
 -11   1  -5 2186.24 561.028  18
 -11   1  -5 2732.54 763.809   4
 -11  -1  -5 1316.70 592.580   4
 -11   1  -4 163715. 4197.59  18
 -11  -1  -4 156343. 3490.12  18
 -11   1  -3 4127.99 664.996  18
 -11  -1  -3 4340.33 589.867  18
  11  -1  -3 3400.44 649.442  17
 -11   1  -2 179145. 4055.26  18
  11  -1  -2 177808. 4184.47  17
 -11  -1  -2 176003. 3686.28  18
 -11  -1  -1 21672.3 1386.86  16
 -11   1  -1 20844.3 1319.44  18
  11  -1  -1 20654.3 1359.29  17
 -11  -1  -1 21120.4 1317.57  18
 -11   1   0 149543. 3395.19  18
 -11  -1   0 159537. 3717.81  18
  11  -1   0 158300. 3554.76  17
 -11  -1   1 19700.6 1301.01  19
 -11   1   1 19072.5 1225.78  18
 -11  -1   1 22196.5 1457.67  18
  11  -1   1 21644.9 1304.03  17
 -11  -1   2 175979. 4125.19  19
 -11   1   2 180759. 3930.28  18
 -11  -1   2 189315. 4464.43  18
 -11  -1   3 4292.25 689.539  19
 -11   1   3 4394.29 681.207  18
 -11  -1   4 150027. 4298.69  19
 -11   1   4 165609. 4394.75  18
 -11   1   5 2707.55 729.423  19
 -11  -1   5 1366.16 479.561  19
 -11   1   5 1783.85 545.746   7
 -11   1   5 2207.11 516.107  11
 -11  -1   5 2030.73 560.692  11
  11  -1   5 1910.37 686.158   6
 -11   1   6 226502. 6445.15  19
 -11  -1   6 209595. 5692.35  19
 -11  -1   6 209438. 5073.33   7
 -11   1   6 190725. 5354.50   7
  11  -1   6 173171. 6321.59   6
 -11   1   6 205118. 4608.38  11
 -11  -1   6 207672. 5282.04  11
 -11  -1   7 4302.18 790.358   7
 -11   1   7 4139.07 853.588   7
 -11  -1   7 4789.35 861.109  11
  11  -1   7 4604.16 1130.10   6
 -11  -1   8 91221.4 3327.69   7
 -11   1   8 76628.3 3387.40   7
  11  -1   8 73137.5 4029.84   6
 -11  -1   8 92061.6 3528.82  11
 -11  -1   9 11335.0 1139.65   7
 -11   1   9 9381.01 1201.59   7
 -11  -1   9 10639.9 1133.68  11
  11  -1   9 7042.62 1185.22   6
 -11  -1  10 69079.9 2431.32   7
 -11   1  10 66124.1 2865.52   7
 -11  -1  10 69874.2 2492.38  11
 -11   1  11 4921.01 704.032   7
 -11  -1  11 4532.85 492.434  11
 -11   1  12 25672.8 1175.08   7
  11   2 -11 966.360 249.494   5
 -11   2 -11 894.266 287.491  14
 -11  -2 -11 1186.70 322.494   4
 -11  -2 -11 1126.38 303.957   2
 -11  -2 -10 69387.7 2780.64   4
  11   2 -10 75912.4 2411.93   5
  11   2  -9 3172.32 552.150   5
 -11  -2  -9 2782.42 726.810   4
  11   2  -8 76854.2 2774.73   5
 -11  -2  -8 87200.5 4325.51   3
  11   2  -7 4732.84 721.276   5
 -11   2  -7 4017.24 826.942   8
 -11  -2  -7 2709.25 724.548   4
 -11  -2  -6 167792. 6395.01   3
 -11  -2  -6 137098. 5337.05   4
 -11  -2  -5 54526.2 3642.83   3
 -11  -2  -5 46560.6 3128.51   4
 -11  -2  -5 54210.8 2738.33  12
 -11  -2  -4 110678. 5035.02   3
 -11   2  -4 110038. 3644.22  18
 -11   2  -4 107446. 4461.44   7
  11  -2  -4 108935. 4216.97  17
 -11  -2  -4 95129.7 4369.39   4
 -11  -2  -4 107540. 3869.29  12
 -11   2  -3 2596.63 567.918  18
  11  -2  -3 1507.89 541.681  17
 -11   2  -3 1751.52 648.568   7
 -11  -2  -3 1706.45 551.153  12
 -11  -2  -3 1662.91 658.065   3
 -11  -2  -3 1415.50 520.006   1
 -11  -2  -3 1671.38 623.875   4
 -11   2  -2 284433. 5521.13  18
  11  -2  -2 269199. 6004.59  17
 -11  -2  -2 267445. 5884.56  16
 -11   2  -1 12396.5 1100.41  18
  11  -2  -1 11172.2 1174.34  17
 -11  -2  -1 12313.0 1238.72  16
 -11   2   0 162629. 3721.12  18
  11  -2   0 167453. 4383.10  17
 -11  -2   0 171323. 4488.04  16
 -11   2   1 11692.6 973.392  18
  11  -2   1 12080.5 1164.09  17
 -11  -2   1 11864.0 1185.98  16
 -11   2   2 285600. 4862.77  18
 -11  -2   2 307408. 6027.23  16
 -11  -2   3 937.961 364.476  16
 -11   2   3 1189.12 391.999   7
 -11  -2   3 1166.11 353.292  11
  11  -2   4 124044. 5166.44   6
 -11  -2   4 117406. 3905.01  11
 -11   2   5 56182.6 2830.08   7
  11  -2   5 52943.1 3467.85   6
 -11  -2   5 48038.4 2526.38  11
  11  -2   6 143756. 5781.75   6
 -11  -2   6 153813. 4604.29  11
 -11   2   7 4805.98 866.099   7
 -11  -2   7 4385.59 833.810  11
  11  -2   7 3688.70 938.877   6
 -11   2   8 83634.5 3385.69   7
 -11  -2   8 79637.0 3251.49  11
 -11   2   9 4253.64 772.758   7
 -11  -2   9 3396.78 669.713  11
  11  -2   9 4002.80 932.830   6
 -11   2  10 75153.6 2708.38   7
  11  -2  10 69592.2 3151.56   6
 -11  -2  10 72171.3 2481.24  11
 -11   2  11 1411.98 339.235   7
  11  -2  11 774.374 239.001   6
 -11  -2  11 1250.28 275.081  11
  11  -3 -10 1344.07 317.771  15
 -11  -3 -10 1676.46 350.863   2
 -11  -3  -9 4629.05 637.623   2
  11  -3  -9 4466.80 670.671  15
 -11   3  -8 9134.15 1111.02   8
 -11  -3  -8 9228.45 949.721   2
 -11  -3  -8 7953.32 1426.57   3
 -11   3  -7 8084.89 1159.62   8
 -11  -3  -7 8219.99 958.280   2
 -11  -3  -7 9092.34 1913.11   3
 -11   3  -6 7100.16 1178.23   8
 -11  -3  -6 6737.86 908.331   2
 -11  -3  -6 6878.20 1580.84   3
  11  -3  -6 7126.34 974.466   9
 -11  -3  -5 77679.9 4390.69   3
 -11  -3  -5 79927.0 3348.63   1
 -11  -3  -5 80888.6 3033.38   2
 -11  -3  -5 74493.6 3126.94  12
  11  -3  -5 85261.4 3452.43   9
 -11  -3  -4 36199.0 3010.56   3
 -11  -3  -4 35933.6 2299.34   1
 -11  -3  -4 40427.7 2129.79   2
 -11  -3  -4 32492.2 2160.56  12
  11  -3  -4 41198.8 2488.24   9
 -11  -3  -3 11155.8 1636.64   3
 -11  -3  -3 11890.7 1365.46   1
 -11  -3  -3 11673.5 1348.60  12
  11  -3  -3 12790.1 1413.14   9
  11  -3  -2 1433.26 518.374   9
 -11  -3  -2 2105.08 738.142   3
 -11  -3  -2 1451.38 503.727  12
 -11  -3  -2 915.969 436.531   1
  11  -3  -1-477.941 390.413   9
 -11  -3  -1 964.770 389.314  16
 -11  -3  -1 472.511 368.021  12
 -11  -3  -1 339.527 367.028   3
 -11  -3  -1 12.3447 281.033   1
  11  -3   0 534.994 377.638   9
 -11  -3   0-194.455 230.699  16
 -11  -3   0 424.772 398.349   1
 -11  -3   0-197.838 282.122  12
 -11  -3   0-232.502 361.489   3
  11  -3   0 502.237 302.525   6
  11  -3   1 129.676 161.326   9
 -11  -3   1-16.5758 122.484  16
 -11  -3   1 228.484 312.464   1
 -11  -3   1 211.357 258.334  12
 -11  -3   1 3.84755 266.910   3
  11  -3   1 509.109 398.909   6
  11  -3   2 1074.06 444.373   9
 -11  -3   2 971.461 430.685  12
 -11  -3   2 1371.56 555.077   3
  11  -3   2 286.546 326.122   6
  11  -3   2 423.961 306.618  10
 -11   3   3 11842.7 1187.68   7
 -11  -3   3 12282.4 1273.58  12
  11  -3   3 11983.7 1582.46   6
 -11  -3   3 12387.4 1227.50  11
  11  -3   3 13625.7 1577.51  10
  11  -3   3 11490.5 1396.73   9
 -11   3   4 37002.1 2078.23   7
 -11  -3   4 35443.0 2083.72  12
  11  -3   4 34492.2 2748.35   6
 -11  -3   4 33985.0 2102.22  11
  11  -3   4 38955.4 2627.60  10
 -11   3   5 82610.5 3093.37   7
  11  -3   5 75299.3 4052.03   6
 -11  -3   5 76102.2 3128.83  11
  11  -3   5 84503.9 3770.45  10
 -11   3   6 8046.80 976.904   7
 -11  -3   6 7093.48 957.780  11
  11  -3   6 6038.95 1159.02   6
 -11   3   7 9109.90 1004.35   7
 -11  -3   7 8847.49 1061.07  11
  11  -3   7 7549.43 1270.52   6
 -11   3   8 9165.51 922.149   7
  11  -3   8 9759.26 1357.71   6
 -11  -3   8 9589.76 1048.47  11
 -11   3   9 4679.55 580.169   7
 -11  -3   9 5258.48 696.532  11
  11  -3   9 3357.26 731.668   6
 -11   3  10 1582.52 267.634   7
  11  -3  10 1928.16 462.862   6
 -11  -3  10 1809.72 340.919  11
  11  -4  -9 814.243 215.586  15
 -11  -4  -9 758.513 176.132   2
 -11  -4  -8 16791.2 961.245   2
 -11   4  -8 16240.7 1135.68   8
  11  -4  -8 17767.4 1152.57  15
  11  -4  -7 616.998 259.056   9
 -11   4  -7 603.423 332.597   8
 -11  -4  -7-126.601 983.772   3
  11  -4  -7 1199.66 384.053  15
 -11  -4  -7 921.289 332.421   2
 -11  -4  -6 128576. 3518.20   1
 -11  -4  -6 122414. 3143.50   2
 -11   4  -6 131938. 4254.21   8
  11  -4  -6 130014. 3829.27  15
  11  -4  -6 126214. 3551.29   9
 -11  -4  -6 130963. 4791.39   3
 -11  -4  -5 5310.96 722.570   2
  11  -4  -5 5283.23 827.823   9
 -11   4  -5 6386.00 1039.99   8
  11  -4  -5 5791.31 870.221  15
 -11  -4  -5 5467.49 1394.52   3
 -11  -4  -5 7037.09 936.238  12
 -11  -4  -5 5291.34 832.200   1
 -11  -4  -4 54403.5 2249.50   2
 -11  -4  -4 54637.6 3336.32   3
 -11  -4  -4 53364.2 2712.63   1
  11  -4  -4 51913.6 2584.80  15
 -11  -4  -4 51708.8 2484.37  12
  11  -4  -4 54034.2 2709.49   9
  11  -4  -3 495.664 392.369   9
  11  -4  -3 638.329 390.834  15
 -11  -4  -3-19.4559 717.180   3
 -11  -4  -3 887.590 348.590   2
 -11  -4  -3-51.8696 463.209  12
 -11  -4  -3 597.596 424.664   1
 -11  -4  -2 50787.9 2860.02   1
 -11  -4  -2 44636.4 3042.35   3
  11  -4  -2 53134.3 2511.22  15
 -11  -4  -2 51303.2 2747.69  12
 -11  -4  -2 48502.6 2126.63   2
  11  -4  -2 56326.7 2974.27   9
  11  -4  -1 4842.25 932.730   9
 -11  -4  -1 3530.56 920.545   3
 -11  -4  -1 5043.20 900.156  12
 -11  -4  -1 4374.32 898.691   1
 -11  -4   0 51372.4 2967.65   1
 -11  -4   0 52233.6 3168.42   3
 -11  -4   0 57853.6 2950.87  12
  11  -4   0 61045.5 3295.82  10
  11  -4   0 55152.0 3031.28   9
  11  -4   1 4549.26 886.132   9
 -11  -4   1 4551.41 928.994   1
 -11  -4   1 4272.34 810.540  12
 -11  -4   1 3839.69 900.038   3
  11  -4   1 4938.64 978.674  10
 -11  -4   2 49018.2 2902.18   3
 -11  -4   2 48167.5 2559.74  12
  11  -4   2 44727.6 2663.70   6
  11  -4   2 48737.4 2942.41  10
  11  -4   2 47620.0 2779.91   9
 -11  -4   3 647.653 356.655  12
 -11  -4   3 404.617 377.864   3
  11  -4   3 660.873 345.875   6
  11  -4   3 194.179 345.519  10
 -11  -4   4 51936.9 2742.45   3
 -11  -4   4 56509.7 2546.12  12
  11  -4   4 54464.6 3014.84   6
  11  -4   4 52884.2 2931.03  10
 -11  -4   5 4597.78 673.083  12
 -11  -4   5 4773.23 665.754  11
 -11  -4   5 4210.02 742.350   3
  11  -4   5 4469.40 900.600   6
  11  -4   5 5354.24 894.338  10
 -11  -4   6 126878. 3582.76   3
  11  -4   6 125631. 4308.53   6
 -11  -4   6 123786. 3175.61  11
  11  -4   6 127914. 3893.15  10
 -11  -4   7 994.528 330.431  11
  11  -4   7 1091.41 452.866   6
  11  -4   7 938.038 289.931  10
  11  -4   8 18013.8 1322.46   6
 -11  -4   8 17798.6 991.896  11
  11  -4   9 681.332 236.561   6
 -11  -4   9 699.882 168.016  11
 -11   5  -6 20430.1 1081.14   8
  11  -5  -6 23504.3 996.899  15
  11  -5  -5 3747.76 502.959   9
 -11   5  -5 4382.38 605.961   8
 -11  -5  -5 2702.17 708.693   3
  11  -5  -5 4936.28 524.423  15
  11  -5  -5 4565.91 578.362  10
 -11   5  -4 82333.1 2779.99   8
  11  -5  -4 83641.4 2218.92  15
  11  -5  -4 86120.8 2754.47  10
  11  -5  -4 81958.7 2566.03   9
 -11  -5  -4 82884.0 2959.36   3
 -11  -5  -3 9058.97 1240.52   3
 -11  -5  -3 6710.61 829.648   1
 -11   5  -3 6866.91 855.132   8
  11  -5  -3 7403.47 658.927  15
 -11  -5  -3 6670.53 749.703  12
  11  -5  -3 7694.67 918.063  10
  11  -5  -3 6380.29 809.613   9
 -11  -5  -2 77353.0 2862.07   1
 -11  -5  -2 76491.4 3079.47   3
 -11  -5  -2 77417.7 2642.47  12
  11  -5  -2 80370.9 3029.28  10
  11  -5  -2 78036.7 2886.80   9
  11  -5  -1 3281.36 652.093   9
 -11  -5  -1 4764.00 861.333   3
 -11  -5  -1 3468.80 628.921  12
  11  -5  -1 4181.19 764.188  10
 -11  -5   0 55278.1 2527.70   3
 -11  -5   0 56576.5 2384.38  12
  11  -5   0 57084.7 2700.21  10
  11  -5   0 55320.1 2540.48   9
  11  -5   1 4475.59 780.043   9
 -11  -5   1 3710.26 681.681   3
 -11  -5   1 4671.92 700.331  12
  11  -5   1 4019.06 747.595  10
 -11  -5   2 80259.1 2732.84  12
  11  -5   2 78994.2 3085.71  10
 -11  -5   3 6895.57 768.428  12
  11  -5   3 6701.72 880.151  10
 -11  -5   4 89861.1 2459.86  12
  11  -5   4 84576.9 2859.40  10
 -11  -5   5 3818.43 418.574  12
  11  -5   5 4429.02 600.899  10
 -12   0 -12 72292.6 1831.47   4
  12   0 -11-37.4290 158.605   5
 -12   0 -11 38.1919 217.556   4
 -12   0 -10 104731. 3887.16   4
 -12   0 -10 106307. 3225.78  14
  12   0 -10 112897. 3301.44   5
  12   0  -9 845.089 390.870   5
 -12   0  -9 996.764 352.100  14
 -12   0  -9 1240.86 583.561   4
 -12   0  -8 95777.9 4450.47   4
 -12   0  -8 99238.2 3548.73  14
  12   0  -8 103723. 3572.17   5
 -12   0  -7 13851.7 1785.38   4
 -12   0  -7 15595.3 1420.31  14
  12   0  -7 16811.3 1459.36   5
 -12   0  -6 175329. 6230.03   4
  12   0  -6 185348. 4796.42   5
 -12   0  -5 7549.30 911.579  18
 -12   0  -5 7940.48 1333.67   4
  12   0  -5 9448.08 1075.09   5
 -12   0  -4 334095. 5754.29  18
 -12   0  -4 341885. 7969.34   7
 -12   0  -4 353453. 8264.26   4
 -12   0  -3 47057.2 2102.01  18
 -12   0  -2 103593. 3009.28  18
 -12   0  -1 27711.5 1541.96  18
 -12   0   0 192000. 4016.97  18
 -12   0   1 24620.6 1500.05  18
 -12   0   2 90570.6 3030.17  18
 -12   0   3 52834.5 2476.76  18
 -12   0   4 345097. 6605.97   7
 -12   0   4 336192. 6183.00  11
 -12   0   5 6727.41 1044.31  19
 -12   0   5 7392.40 1020.79   7
 -12   0   5 6973.18 924.665  11
  12   0   5 7635.11 1258.90   6
 -12   0   6 188744. 5133.19   7
 -12   0   6 195760. 4893.86  11
 -12   0   7 16182.0 1516.55   7
 -12   0   7 16987.4 1447.97  11
 -12   0   8 84961.4 3392.13   7
 -12   0   8 96790.4 3246.00  11
 -12   0   9 810.080 405.529   7
 -12   0   9 908.352 306.515  11
 -12   0  10 110697. 3305.35   7
 -12   0  11-43.2641 240.915   7
 -12  -1 -12 25256.2 1003.04   4
  12   1 -12 22172.9 848.028   5
  12   1 -11 2259.99 397.922   5
 -12   1 -11 2199.58 423.345  14
 -12   1 -11 2023.93 380.006   4
 -12  -1 -11 1959.18 476.185   4
 -12   1 -10 24630.5 1628.51   4
 -12  -1 -10 25038.9 1913.57   4
 -12  -1 -10 26624.8 1547.99  14
 -12   1 -10 25566.0 1566.28  14
  12  -1 -10 25689.5 1510.14   5
  12   1 -10 26074.3 1520.01   5
  12  -1  -9 2827.27 597.897   5
  12   1  -9 2751.45 576.640   5
 -12  -1  -9 2223.91 518.932  14
 -12   1  -9 3196.55 640.175  14
 -12   1  -9 2949.12 713.309   4
 -12  -1  -9 2719.26 792.146   4
 -12   1  -8 46547.6 2795.23   4
 -12  -1  -8 38984.7 2899.40   4
 -12  -1  -8 48464.4 2396.76  14
  12  -1  -8 47547.8 2399.66   5
  12   1  -8 44793.2 2237.22   5
  12  -1  -7 2295.56 583.454   5
  12   1  -7 2166.93 514.104   5
 -12  -1  -7 1636.28 473.902  14
 -12   1  -7 1575.63 569.812   4
 -12  -1  -7 885.402 555.243   4
 -12   1  -6 39156.3 2718.39   4
 -12  -1  -6 42047.1 2215.13  14
 -12  -1  -6 38959.3 3030.60   4
  12  -1  -6 44748.8 2389.41   5
  12   1  -6 43512.2 2185.99   5
 -12   1  -5 15338.4 1363.65  18
 -12   1  -5 14621.7 1683.00   4
 -12  -1  -5 13696.0 1765.09   4
  12  -1  -5 14355.7 1343.83   5
  12   1  -5 13726.2 1229.55   5
 -12   1  -4 92690.6 3261.84  18
 -12  -1  -4 80491.7 2595.64  18
 -12   1  -4 85688.7 4068.70   7
 -12   1  -4 81872.3 3780.06   4
 -12  -1  -4 93737.1 4389.85   4
  12  -1  -4 92437.9 3284.45   5
 -12   1  -3 638.446 342.117  18
 -12  -1  -3 796.671 291.355  18
 -12  -1  -3 1068.90 495.490   4
 -12   1  -2 44718.2 2121.94  18
 -12  -1  -2 40236.1 1880.07  18
 -12   1  -1 2577.60 517.418  18
 -12  -1  -1 2433.87 495.444  18
 -12   1   0 95189.6 2862.80  18
 -12  -1   0 99411.6 3104.14  18
 -12   1   1 2369.52 467.263  18
 -12  -1   1 2066.57 489.983  18
 -12  -1   2 40595.0 2055.91  19
 -12   1   2 42169.0 2005.69  18
 -12  -1   2 43160.9 2223.90  18
 -12  -1   3 387.590 275.212  19
 -12   1   3 1011.23 358.665  18
 -12   1   3 582.537 364.772   7
 -12  -1   3 918.309 366.989  11
 -12   1   4 91946.9 3331.69  18
 -12   1   4 96107.5 3632.51   7
 -12   1   4 87307.3 3045.00  11
 -12  -1   4 92156.4 3380.41  11
 -12   1   5 16154.7 1680.24  19
 -12  -1   5 12764.7 1375.80  19
 -12  -1   5 13514.8 1230.96   7
 -12   1   5 13640.6 1437.53   7
  12  -1   5 12840.9 1737.26   6
 -12   1   5 14272.7 1253.78  11
 -12  -1   5 13339.0 1324.07  11
 -12  -1   6 42378.7 2230.03   7
 -12   1   6 40403.6 2451.25   7
  12  -1   6 37965.9 2946.75   6
 -12   1   6 41596.9 2098.24  11
 -12  -1   6 40021.3 2299.70  11
 -12  -1   7 1715.76 477.606   7
 -12   1   7 1544.01 558.739   7
 -12   1   7 1774.45 448.364  11
 -12  -1   7 1273.53 480.347  11
  12  -1   7 1598.66 628.088   6
 -12  -1   8 45484.2 2212.67   7
 -12   1   8 41835.7 2408.71   7
  12  -1   8 38650.9 2808.67   6
 -12  -1   8 47370.8 2431.10  11
 -12  -1   9 2894.89 547.960   7
 -12   1   9 2327.43 619.170   7
 -12  -1   9 2305.45 535.365  11
  12  -1   9 2589.95 679.192   6
 -12   1  10 28174.0 1705.80   7
 -12  -1  10 26756.5 1422.21  11
 -12   1  11 2264.90 439.590   7
 -12  -1  11 1688.19 282.313  11
 -12   1  12 23912.9 925.855   7
  12   2 -11 493.827 137.417   5
 -12   2 -11 1174.63 251.372  14
 -12  -2 -11 1090.27 230.043   4
 -12  -2 -11 662.362 214.230   2
 -12  -2 -10 22988.0 1462.59   4
 -12  -2 -10 23008.1 1249.30   2
 -12   2 -10 23888.4 1336.70  14
  12   2 -10 24234.5 1209.18   5
  12   2  -9 2968.85 487.158   5
 -12  -2  -9 3142.79 689.460   4
 -12  -2  -8 28177.7 2170.42   4
  12   2  -8 30376.0 1622.37   5
 -12  -2  -8 32224.7 2455.95   3
 -12  -2  -7 15880.2 1747.94   4
  12   2  -7 18354.2 1291.20   5
 -12   2  -6 7734.26 1145.94   8
 -12  -2  -6 5351.42 1072.79   4
 -12  -2  -5 13409.7 1769.45   3
 -12  -2  -5 13279.9 1713.65   4
 -12  -2  -4 15544.0 1885.53   3
 -12   2  -4 18562.8 1891.17   7
 -12  -2  -4 16246.8 1822.01   4
 -12  -2  -4 18858.8 1682.04  12
 -12  -2  -3 30709.0 2080.14   1
 -12  -2  -3 32656.7 2590.54   3
 -12   2  -3 31721.1 1967.96  18
 -12   2  -3 26928.3 2191.63   7
  12  -2  -3 30408.7 2132.25  17
 -12  -2  -3 29598.4 2361.76   4
 -12  -2  -3 29543.2 2109.71  12
 -12  -2  -2 47173.2 2645.31   1
 -12   2  -2 56439.7 2522.34  18
 -12  -2  -2 52482.4 3134.16   3
 -12   2  -2 52751.7 2837.21   7
  12  -2  -2 47919.7 2587.61  17
 -12  -2  -2 53628.2 2838.96  12
 -12  -2  -2 52713.9 3013.10   4
 -12   2  -1 3697.08 631.428  18
  12  -2  -1 3956.27 738.094  17
 -12  -2  -1 3499.92 679.431  16
 -12   2  -1 3901.70 788.475   7
 -12  -2  -1 4399.86 807.563  12
 -12  -2  -1 4703.69 911.429   3
 -12   2   0 15268.4 1203.24  18
  12  -2   0 14973.2 1360.26  17
 -12   2   0 15545.0 1403.58   7
 -12  -2   0 16823.1 1687.52   3
 -12  -2   0 16261.4 1433.39  16
 -12  -2   0 17114.4 1538.59  12
 -12   2   1 3770.17 582.460  18
  12  -2   1 3884.57 706.509  17
 -12   2   1 3632.41 677.408   7
 -12  -2   1 3228.97 671.507  12
 -12   2   2 45997.7 2034.73  18
  12  -2   2 50544.5 2484.61  17
 -12   2   2 48735.6 2427.93   7
 -12  -2   2 46088.8 2428.48  12
 -12  -2   2 48403.4 2349.55  11
 -12   2   3 31910.2 2019.50   7
  12  -2   3 35842.7 2837.25   6
 -12  -2   3 30539.1 1950.77  11
 -12   2   4 18479.8 1595.61   7
  12  -2   4 18822.7 2070.10   6
 -12  -2   4 18357.3 1538.69  11
 -12   2   5 14401.2 1435.67   7
  12  -2   5 13013.5 1750.65   6
 -12  -2   5 13400.4 1331.68  11
 -12   2   6 4259.94 809.695   7
 -12  -2   6 4613.18 796.869  11
  12  -2   6 4060.75 991.175   6
 -12   2   7 18571.7 1583.64   7
  12  -2   7 18171.9 2033.89   6
 -12  -2   7 17063.8 1496.16  11
 -12   2   8 32405.9 1983.98   7
  12  -2   8 31318.1 2506.09   6
 -12  -2   8 30295.7 1921.12  11
 -12   2   9 3350.87 621.056   7
 -12  -2   9 3621.17 623.950  11
  12  -2   9 2791.15 710.496   6
 -12   2  10 24877.4 1412.47   7
  12  -2  10 24629.0 1641.53   6
 -12  -2  10 23770.0 1296.52  11
 -12   2  11 680.348 210.577   7
 -12  -2  11 911.275 194.041  11
 -12  -3 -10 66851.6 1565.95   2
  12  -3 -10 61348.8 1600.27  15
  12  -3  -9 258.991 212.801  15
 -12  -3  -9 474.451 218.333   2
 -12   3  -8 91723.1 2980.71   8
 -12  -3  -8 92955.3 2677.78   2
 -12  -3  -8 83766.8 3600.55   3
 -12   3  -7 3442.48 710.311   8
 -12  -3  -7 3355.03 605.222   2
 -12  -3  -6 49659.4 3351.55   3
 -12   3  -6 53893.1 2906.71   8
 -12  -3  -6 50663.4 2229.31   2
 -12  -3  -5 3802.55 705.434   1
 -12  -3  -5 3254.33 1032.82   3
 -12  -3  -5 3224.79 604.252   2
 -12  -3  -4 158713. 4769.36   1
 -12  -3  -4 166358. 6147.78   3
 -12  -3  -4 165621. 4828.34  12
 -12  -3  -3 635.835 365.055   1
 -12  -3  -3 337.988 616.813   3
 -12  -3  -3 819.400 379.527  12
 -12  -3  -2 105657. 4106.05   1
 -12  -3  -2 120188. 5017.93   3
 -12  -3  -2 115050. 4279.87  12
  12  -3  -1 1356.98 520.504   9
 -12  -3  -1 1501.21 562.200   1
 -12  -3  -1 1506.56 512.333  12
 -12  -3  -1 1836.28 685.450   3
 -12  -3   0 241420. 6762.02   3
 -12   3   0 230369. 5520.95   7
 -12  -3   0 232025. 5993.54  12
  12  -3   0 255194. 6929.76   6
  12  -3   0 247783. 6197.46   9
 -12  -3   0 233457. 6415.80   1
  12  -3   1 2214.43 657.397   9
 -12   3   1 969.484 427.144   7
 -12  -3   1 1289.68 470.030  12
 -12  -3   1 1738.19 647.755   3
  12  -3   1 3061.29 784.194   6
 -12   3   2 111268. 3611.08   7
 -12  -3   2 110368. 4444.41   3
 -12  -3   2 105666. 3790.11  12
  12  -3   2 108790. 4703.34   6
  12  -3   2 120862. 4480.28  10
  12  -3   2 112658. 4240.58   9
 -12   3   3 706.567 327.324   7
 -12  -3   3 619.842 344.523  12
 -12  -3   3 698.005 311.410  11
  12  -3   3 770.128 494.483   6
  12  -3   3 1360.09 543.527  10
 -12   3   4 157679. 4228.64   7
 -12  -3   4 164256. 4421.75  12
  12  -3   4 157323. 5762.89   6
 -12  -3   4 158806. 4341.35  11
  12  -3   4 166995. 5111.98  10
 -12   3   5 4403.82 725.618   7
 -12  -3   5 3503.39 672.993  11
  12  -3   5 4013.55 952.824   6
 -12   3   6 59593.4 2480.91   7
  12  -3   6 60803.7 3474.87   6
 -12  -3   6 58175.7 2560.85  11
 -12   3   7 3222.02 564.835   7
 -12  -3   7 3003.47 590.566  11
  12  -3   7 3162.41 835.191   6
 -12   3   8 94777.8 2689.82   7
  12  -3   8 91205.8 3730.42   6
 -12  -3   8 92039.0 2895.43  11
 -12   3   9 383.379 163.361   7
  12  -3   9 459.730 285.774   6
 -12  -3   9-64.4522 167.795  11
  12  -3  10 73078.2 2155.53   6
 -12  -3  10 73548.4 1738.53  11
  12  -4  -8 22618.5 1128.42  15
 -12  -4  -8 20349.9 849.492   2
 -12   4  -7 2304.24 479.941   8
  12  -4  -7 2598.98 470.870  15
 -12  -4  -7 2239.65 362.198   2
 -12  -4  -6 49822.2 1781.20   2
 -12   4  -6 51382.8 2408.87   8
  12  -4  -6 51472.8 2222.71  15
  12  -4  -6 45682.7 1893.90   9
 -12  -4  -6 50029.2 2806.61   3
 -12  -4  -5 7687.01 752.259   2
 -12   4  -5 8663.44 1107.58   8
  12  -4  -5 8422.55 966.041  15
 -12  -4  -5 7971.65 1513.47   3
  12  -4  -5 6947.64 851.002   9
 -12  -4  -4 52360.2 2558.23   1
 -12  -4  -4 54800.8 3166.63   3
  12  -4  -4 53458.8 2439.29  15
 -12  -4  -4 52136.1 2397.26  12
  12  -4  -4 54898.5 2528.34   9
 -12  -4  -4 53623.6 2033.11   2
  12  -4  -3 1427.74 499.340   9
  12  -4  -3 1530.73 455.506  15
 -12  -4  -3 1480.03 507.844   1
 -12  -4  -3 1055.02 590.845   3
 -12  -4  -3 746.047 415.940  12
 -12  -4  -2 62024.5 3032.68   1
 -12  -4  -2 63633.8 3496.93   3
  12  -4  -2 65728.9 2611.08  15
 -12  -4  -2 68556.1 3061.70  12
  12  -4  -2 65468.0 3057.88   9
  12  -4  -1 824.438 484.491   9
 -12  -4  -1 452.868 377.189   1
 -12  -4  -1-673.719 566.073   3
 -12  -4  -1 419.069 391.921  12
 -12  -4   0 83826.2 3886.12   3
 -12  -4   0 85058.8 3475.06  12
  12  -4   0 89793.5 3843.61  10
  12  -4   0 85087.3 3608.65   9
  12  -4   1-180.131 324.579   9
 -12  -4   1 501.695 332.532  12
 -12  -4   1 694.102 408.858   3
  12  -4   1 316.337 393.646  10
 -12  -4   2 65609.6 3249.62   3
 -12  -4   2 65111.2 2859.08  12
  12  -4   2 63524.4 3042.78   6
  12  -4   2 65179.5 3206.85  10
 -12  -4   3 1762.00 485.661  12
 -12  -4   3 836.458 404.653   3
  12  -4   3 781.883 383.237   6
  12  -4   3 1296.63 497.596  10
 -12  -4   4 49851.9 2574.69   3
 -12  -4   4 50668.2 2285.12  12
  12  -4   4 45928.6 2635.89   6
  12  -4   4 49001.7 2585.93  10
 -12  -4   5 7795.95 963.952   3
 -12  -4   5 8401.98 825.098  12
  12  -4   5 7460.11 1063.89   6
 -12  -4   5 7891.23 762.616  11
  12  -4   5 7033.70 919.761  10
 -12  -4   6 54155.7 2213.93   3
  12  -4   6 54768.2 2645.33   6
 -12  -4   6 53527.3 1854.24  11
  12  -4   6 52222.9 2152.14  10
 -12  -4   7 2217.75 368.652  11
  12  -4   7 2625.28 563.719   6
  12  -4   8 25618.0 1359.69   6
 -12  -4   8 24125.4 945.434  11
 -12   5  -5 677.569 244.303   8
 -12  -5  -5 435.653 439.295   3
  12  -5  -5 735.345 212.695  10
 -12   5  -4 6957.87 729.447   8
 -12  -5  -4 5899.20 872.935   3
  12  -5  -4 6573.56 706.025  10
  12  -5  -4 6035.88 596.263   9
  12  -5  -3 1010.73 290.033   9
 -12   5  -3 994.271 338.577   8
 -12  -5  -3 2834.76 891.860   3
 -12  -5  -3 2403.71 474.231  12
  12  -5  -3 977.291 355.369  10
  12  -5  -2 565.549 251.463   9
 -12  -5  -2 753.728 694.277   3
 -12  -5  -2 719.730 323.810  12
  12  -5  -2 712.948 331.202  10
  12  -5  -1-239.544 256.087   9
 -12  -5  -1-242.562 325.770  12
  12  -5  -1-334.863 286.051  10
 -12  -5   0 3622.71 673.422   3
 -12  -5   0 3498.72 583.102  12
  12  -5   0 4294.16 704.156  10
 -12  -5   1-45.2422 283.492   3
  12  -5   1 208.218 244.607  10
 -12  -5   2-96.9809 224.124  12
  12  -5   2 922.015 335.078  10
 -12  -5   3 907.349 271.727  12
  12  -5   3 940.506 334.583  10
 -12  -5   4 6172.98 554.382  12
  12  -5   4 7036.25 723.358  10
 -13   0 -11 38.9950 158.224   4
  13   0 -10 250.290 241.792   5
 -13   0 -10 443.233 296.616  14
 -13   0 -10 343.797 334.828   4
  13   0  -9 105.678 246.654   5
 -13   0  -9-173.893 254.942  14
 -13   0  -9 150.529 332.078   4
  13   0  -8 29.0379 256.119   5
 -13   0  -8-156.854 199.830  14
 -13   0  -8 402.202 399.076   4
  13   0  -7-219.924 251.443   5
 -13   0  -7-758.168 507.637   4
  13   0  -6 422.957 354.751   5
 -13   0  -6 430.738 546.134   4
  13   0  -5 215.108 256.756   5
 -13   0  -5 273.361 437.845   4
  13   0  -4 369.696 277.659   5
 -13   0  -4-6.63212 266.053  18
 -13   0  -4 424.331 403.573   7
 -13   0  -4 380.957 345.878   4
 -13   0  -3-151.606 223.376  18
 -13   0  -3 215.914 269.208   7
 -13   0  -3-353.814 312.710   4
 -13   0  -2 15.5439 208.611  18
 -13   0  -2 247.236 306.038   7
 -13   0  -1 10.9177 186.509  18
 -13   0   0 420.433 249.887  18
 -13   0   1 265.416 215.921  18
 -13   0   2 74.3732 193.183  18
 -13   0   2 157.463 224.892   7
 -13   0   2 468.650 331.784  11
 -13   0   3 567.486 300.833  18
 -13   0   3 588.569 310.163   7
 -13   0   3 95.0524 210.407  11
 -13   0   4 731.307 469.633  19
 -13   0   4 242.085 232.236   7
 -13   0   4 406.459 284.296  11
 -13   0   5-72.3443 342.886   7
 -13   0   5 231.381 278.499  11
  13   0   5-840.711 509.220   6
 -13   0   6 1372.90 475.029   7
 -13   0   6 449.092 292.398  11
  13   0   6 632.571 393.289   6
 -13   0   7-136.715 297.221   7
 -13   0   7-9.62014 220.081  11
 -13   0   8 899.897 397.636   7
 -13   0   8 480.352 349.577  11
 -13   0   9 408.854 288.170   7
 -13   0   9 259.588 205.186  11
 -13   0  10 105.599 221.677   7
 -13   0  11 1.54566 123.957   7
 -13   1 -11 2965.93 357.361   4
 -13  -1 -11 3149.17 484.620   4
  13   1 -11 3138.11 388.004   5
 -13   1 -10 58386.2 2184.02   4
 -13  -1 -10 55823.5 2507.35   4
 -13   1 -10 57785.9 2042.30  14
  13   1 -10 56419.5 1987.54   5
  13   1  -9 1391.13 398.653   5
 -13   1  -9 1689.98 472.654  14
 -13   1  -9 1114.02 411.970   4
 -13  -1  -9 1154.13 482.593   4
 -13   1  -8 67566.2 3168.77   4
 -13  -1  -8 61684.1 3412.02   4
 -13  -1  -8 65970.2 2581.38  14
 -13   1  -8 63359.6 2631.16  14
  13  -1  -8 64725.0 2688.43   5
  13   1  -8 62735.7 2473.91   5
  13  -1  -7 2915.73 649.494   5
  13   1  -7 2970.06 587.691   5
 -13  -1  -7 2476.79 532.467  14
 -13   1  -7 2961.47 723.460   4
 -13  -1  -7 1997.05 737.475   4
 -13   1  -6 171529. 5519.79   4
 -13  -1  -6 166983. 6097.13   4
  13  -1  -6 168198. 4561.17   5
  13   1  -6 170418. 4170.89   5
 -13   1  -5 12833.9 1522.71   4
 -13  -1  -5 12695.6 1696.84   4
 -13   1  -4 77258.4 3031.86  18
 -13   1  -4 74940.9 3762.11   7
 -13   1  -4 66831.5 3437.10   4
 -13  -1  -4 71485.6 3820.13   4
 -13   1  -3 33613.5 1974.74  18
 -13  -1  -3 29036.6 2163.25   7
 -13  -1  -3 28061.4 1631.35  18
 -13   1  -3 27750.7 2198.22   7
 -13   1  -3 33017.6 2350.99   4
 -13  -1  -3 30752.1 2392.54   4
 -13   1  -2 213175. 4791.62  18
 -13  -1  -2 201824. 4425.08  18
 -13  -1  -2 206434. 5478.21   7
 -13   1  -2 204707. 5488.17   7
 -13  -1  -2 220167. 5454.48  12
 -13   1  -2 206944. 5653.59   4
 -13   1  -1 306.829 233.952  18
 -13  -1  -1 440.309 294.386  18
 -13   1  -1 1193.87 434.794   7
 -13  -1  -1 1707.37 527.622  12
 -13   1   0 277763. 5147.88  18
 -13  -1   0 278366. 5460.79  18
 -13   1   0 274001. 5706.66   7
 -13   1   1 798.144 290.983  18
 -13  -1   1 698.109 325.519  18
 -13   1   1 504.422 308.282   7
 -13  -1   1-178.081 234.871  11
 -13   1   2 209555. 4650.94  18
 -13   1   2 208556. 5066.83   7
 -13  -1   2 223986. 5030.87  11
 -13   1   3 29108.9 1832.07  18
 -13   1   3 31317.0 2029.43   7
 -13   1   3 28200.0 1771.20  11
 -13  -1   3 30696.5 1933.36  11
 -13  -1   4 68231.4 2715.61   7
 -13   1   4 77333.7 3257.25   7
 -13   1   4 71926.6 2853.75  11
 -13  -1   4 71249.0 3002.63  11
 -13  -1   5 12779.3 1213.77   7
 -13   1   5 13384.5 1401.55   7
  13  -1   5 13499.9 1760.52   6
 -13   1   5 13013.3 1201.53  11
 -13  -1   5 12243.3 1257.76  11
 -13  -1   6 170362. 4330.46   7
 -13   1   6 167371. 4778.90   7
  13  -1   6 172139. 6147.59   6
 -13   1   6 157153. 4088.97  11
 -13  -1   6 164085. 4554.98  11
 -13  -1   7 3484.86 639.984   7
 -13   1   7 3485.57 713.074   7
 -13   1   7 2571.23 499.095  11
 -13  -1   7 3238.44 685.895  11
  13  -1   7 2800.73 801.453   6
 -13  -1   8 74591.0 2618.54   7
 -13   1   8 71809.4 2940.37   7
  13  -1   8 71094.6 3542.02   6
 -13  -1   8 76156.9 2925.55  11
 -13  -1   9 1101.24 328.655   7
 -13   1   9 1190.72 451.451   7
 -13  -1   9 757.031 303.334  11
  13  -1   9 966.907 400.942   6
 -13   1  10 62115.5 2261.83   7
 -13  -1  10 57206.1 1891.48  11
 -13   1  11 2854.85 412.085   7
 -13  -2 -10 69560.9 1849.15   2
  13  -2 -10 65649.6 1955.04  15
  13   2 -10 64251.6 1576.19   5
  13   2  -9 1013.51 259.013   5
 -13  -2  -9 825.161 387.639   4
 -13  -2  -9 430.998 281.743   2
 -13  -2  -8 124620. 4237.25   4
 -13  -2  -8 126262. 3239.24   2
  13   2  -8 128209. 2972.07   5
 -13  -2  -8 127595. 4189.40   3
 -13  -2  -7 6534.34 1311.12   3
 -13  -2  -7 4973.14 958.729   4
 -13  -2  -6 101110. 4404.57   3
 -13  -2  -6 89287.3 4129.83   4
 -13  -2  -5 4216.99 1004.79   3
 -13  -2  -5 4080.60 955.256   4
 -13  -2  -4 52020.3 3270.49   3
 -13  -2  -4 51498.0 3195.45   4
 -13   2  -3 3623.89 826.269   7
 -13  -2  -3 3393.67 871.905   3
 -13  -2  -3 4712.66 937.827  12
 -13  -2  -3 3657.86 879.052   4
 -13  -2  -2 193585. 5999.94   3
 -13   2  -2 199811. 5596.15   7
 -13  -2  -2 207074. 5621.13  12
 -13  -2  -2 206503. 5998.02   4
 -13   2  -1 13446.4 1224.38  18
 -13  -2  -1 12329.1 1474.82   3
 -13   2  -1 12394.8 1322.15   7
 -13  -2  -1 12215.2 1378.42  12
 -13   2   0 194232. 4425.69  18
 -13  -2   0 190885. 5679.45   3
 -13  -2   0 199260. 5320.80  12
 -13   2   1 11212.1 1051.68  18
 -13   2   1 11818.3 1243.49   7
 -13  -2   1 12904.2 1340.90  12
 -13  -2   1 11200.3 1075.48  11
 -13  -2   2 212238. 5222.70  12
 -13  -2   2 218527. 4971.17  11
 -13   2   3 3398.01 687.574   7
 -13  -2   3 2889.51 641.980  11
  13  -2   3 4742.01 1067.82   6
 -13   2   4 54357.6 2699.27   7
  13  -2   4 57307.9 3554.14   6
 -13  -2   4 54154.4 2597.58  11
 -13   2   5 4681.94 808.947   7
 -13  -2   5 4184.89 746.592  11
  13  -2   5 4083.08 1053.77   6
 -13   2   6 85372.4 3284.41   7
  13  -2   6 81356.6 4188.94   6
 -13  -2   6 83786.5 3162.41  11
 -13   2   7 5465.26 836.875   7
 -13  -2   7 6250.59 876.981  11
  13  -2   7 5596.50 1109.81   6
 -13   2   8 136311. 3768.21   7
  13  -2   8 136812. 4832.99   6
 -13  -2   8 132017. 3697.96  11
 -13   2   9 998.001 349.828   7
 -13  -2   9 756.902 295.168  11
  13  -2   9 786.151 388.951   6
 -13   2  10 78507.6 2207.35   7
  13  -2  10 72451.6 2306.47   6
 -13  -2  10 76336.4 2035.12  11
  13  -3  -9 1819.82 354.928  15
 -13  -3  -8 3090.93 852.168   3
 -13  -3  -8 2788.27 435.556   2
 -13   3  -7-72.5443 231.504   8
 -13  -3  -7 45.1135 182.924   2
 -13   3  -6 6026.74 898.963   8
 -13  -3  -6 6146.62 731.909   2
 -13  -3  -6 6596.53 906.507   4
 -13  -3  -6 7249.24 1455.74   3
 -13  -3  -5 887.794 728.545   3
 -13  -3  -5 820.470 373.137   4
 -13  -3  -4 3276.71 937.479   3
 -13  -3  -4 4859.88 962.926  12
 -13  -3  -4 3447.82 738.904   4
 -13  -3  -3 73.9920 392.387  12
 -13  -3  -3 529.654 365.233   4
 -13   3  -2 1427.67 514.758   7
 -13  -3  -2 2220.45 743.992   3
 -13  -3  -2 3131.70 768.318  12
 -13  -3  -2 2564.64 638.616   4
 -13   3  -1 3992.26 721.373   7
 -13  -3  -1 3558.46 798.328  12
 -13  -3  -1 4039.66 934.982   3
 -13  -3  -1 4247.45 849.094   4
 -13  -3   0 12820.9 1568.07   3
 -13   3   0 14282.0 1376.67   7
 -13  -3   0 12801.8 1415.44  12
  13  -3   0 12929.1 1558.40   6
 -13   3   1 4233.13 747.212   7
 -13  -3   1 3345.04 706.057  12
 -13  -3   1 4221.86 919.851   3
  13  -3   1 4296.75 908.223   6
 -13   3   2 2254.05 563.624   7
 -13  -3   2 2689.78 629.463  12
 -13  -3   2 3040.11 805.591   3
  13  -3   2 3134.51 829.826   6
  13  -3   2 2447.49 698.824  10
 -13   3   3-308.239 297.877   7
 -13  -3   3 39.7819 200.287  12
 -13  -3   3 55.7316 193.316  11
 -13  -3   3 608.193 410.285   3
  13  -3   3 412.700 403.888   6
  13  -3   3 593.562 384.170  10
 -13   3   4 3482.80 659.845   7
 -13  -3   4 4070.85 666.634  11
  13  -3   4 2811.56 806.891   6
  13  -3   4 2774.51 634.279  10
 -13   3   5 404.269 243.222   7
 -13  -3   5 336.313 270.314  11
  13  -3   5-67.8482 303.469   6
 -13   3   6 4206.48 656.530   7
  13  -3   6 6561.23 1123.22   6
 -13  -3   6 5361.40 738.802  11
 -13   3   7-182.773 205.297   7
 -13  -3   7 483.482 287.857  11
  13  -3   7 558.283 427.591   6
 -13   3   8 2769.01 443.808   7
 -13  -3   8 2655.44 486.493  11
  13  -3   8 2936.40 661.295   6
 -13   3   9 814.627 188.541   7
 -13  -3   9 1665.11 319.405  11
  13  -3   9 1304.23 348.746   6
 -13  -3   9 1501.86 322.343   3
 -13   4  -7 173.860 180.041   8
 -13  -4  -7 210.716 570.699   3
  13  -4  -7 235.797 161.850  15
 -13   4  -6 32417.2 1684.18   8
  13  -4  -6 35915.0 1663.96  15
 -13  -4  -6 34802.0 2098.02   3
 -13   4  -5 1640.73 482.983   8
 -13  -4  -5 3116.57 1125.69   3
  13  -4  -5 2093.79 465.759  15
 -13  -4  -4 99958.6 3919.40   3
  13  -4  -4 96405.7 2986.04  15
 -13  -4  -4 91096.7 2976.09  12
  13  -4  -4 91699.2 2849.85   9
  13  -4  -3 3268.35 640.342   9
  13  -4  -3 3331.90 575.428  15
 -13  -4  -3 2800.71 806.885   3
 -13  -4  -3 3382.41 707.847  12
 -13  -4  -2 61782.5 3240.45   3
 -13  -4  -2 61410.7 2758.05  12
  13  -4  -2 60316.3 2662.08   9
  13  -4  -1 1593.08 481.959   9
 -13  -4  -1 946.959 477.724   3
 -13  -4  -1 1410.40 498.384  12
  13  -4  -1 1837.20 547.296  10
 -13  -4   0 47999.6 2808.92   3
 -13  -4   0 41729.8 2330.07  12
  13  -4   0 47764.8 2638.40  10
  13  -4   0 45658.4 2445.30   9
  13  -4   1 1380.67 478.781   9
 -13  -4   1 2190.93 657.040   3
 -13  -4   1 2077.34 546.810  12
  13  -4   1 1949.08 575.769  10
 -13  -4   2 61968.0 3009.26   3
 -13  -4   2 59023.3 2565.70  12
  13  -4   2 59446.1 2781.44   6
  13  -4   2 59832.5 2870.55  10
 -13  -4   3 2802.66 562.135  12
 -13  -4   3 3281.59 696.850   3
  13  -4   3 3185.49 709.937   6
  13  -4   3 4139.19 759.551  10
 -13  -4   4 84100.6 3119.69   3
 -13  -4   4 91815.8 2766.61  12
  13  -4   4 85316.0 3315.71   6
  13  -4   4 85486.8 3061.85  10
 -13  -4   5 1490.95 422.633   3
  13  -4   5 2153.57 565.179   6
  13  -4   5 1786.83 417.627  10
 -13  -4   6 40627.4 1744.77   3
  13  -4   6 43027.6 2086.97   6
  13  -4   7 378.849 220.520   6
 -13   5  -4 30395.0 1275.27   8
 -13  -5  -4 30242.9 1339.42   3
 -13   5  -3 1835.02 361.727   8
 -13  -5  -3 2946.92 667.841   3
  13  -5  -3 2123.60 398.031  10
 -13  -5  -2 67163.5 2340.85   3
 -13   5  -2 66815.7 2218.14   8
 -13  -5  -2 70127.5 2036.74  12
  13  -5  -2 71445.5 2331.93  10
 -13  -5  -1 433.500 269.238  12
  13  -5  -1 411.341 268.778  10
 -13  -5   0 38772.9 1734.57   3
 -13  -5   0 39759.1 1653.28  12
  13  -5   0 41847.0 1874.72  10
 -13  -5   1 124.931 212.241  12
  13  -5   1 358.913 212.054  10
 -13  -5   2 63836.1 1933.23  12
  13  -5   2 66341.6 2242.18  10
 -13  -5   3 1792.53 306.839  12
  13  -5   3 1944.38 366.990  10
 -14   0 -11 793.174 213.340   4
 -14   0 -10 78257.9 2606.81   4
 -14   0  -9 4251.58 773.167   4
  14   0  -9 4334.33 628.988   5
 -14   0  -8 142363. 4719.93   4
  14   0  -8 138818. 3679.34   5
  14   0  -7 3510.98 638.862   5
 -14   0  -7 3054.97 791.198   4
 -14   0  -6 161918. 5590.37   4
  14   0  -6 158847. 4204.04   5
 -14   0  -5 11335.5 1527.02   4
  14   0  -5 11933.2 1169.96   5
 -14   0  -4 215815. 6391.13   4
 -14   0  -3 8364.74 976.290  18
 -14   0  -3 7403.33 1148.78   7
 -14   0  -3 8433.64 1262.16   4
 -14   0  -2 108250. 3377.44  18
 -14   0  -2 107147. 4038.35   7
 -14   0  -2 102138. 4092.21   4
 -14   0  -1 7602.44 913.933  18
 -14   0  -1 5476.50 902.499   7
 -14   0   0 149807. 4004.71  18
 -14   0   0 136779. 4135.70   7
 -14   0   1 6091.37 829.193  18
 -14   0   1 5055.78 805.053   7
 -14   0   1 6112.69 824.546  11
 -14   0   2 104049. 3495.37  18
 -14   0   2 101625. 3528.69   7
 -14   0   2 105430. 3501.41  11
 -14   0   3 6705.66 978.265  19
 -14   0   3 8616.23 1053.71  18
 -14   0   3 7065.77 951.096   7
 -14   0   3 7790.56 972.542  11
 -14   0   4 202113. 5089.83   7
 -14   0   4 199212. 4853.51  11
 -14   0   5 10262.0 1156.71   7
  14   0   5 11053.4 1503.64   6
 -14   0   5 10830.0 1161.62  11
 -14   0   6 162441. 4457.80   7
  14   0   6 166321. 5329.46   6
 -14   0   6 162202. 4313.83  11
 -14   0   7 3767.30 672.981   7
 -14   0   7 4098.11 699.104  11
 -14   0   8 134604. 3697.99   7
 -14   0   8 143342. 3597.65  11
 -14   0   9 4111.67 597.062   7
 -14   0   9 3701.86 501.749  11
 -14   0  10 79150.9 2179.45   7
 -14  -1 -11 215.702 130.088   4
 -14   1 -10 22044.1 1123.45   4
 -14  -1 -10 22573.6 1374.49   4
  14   1 -10 22861.3 1074.14   5
  14   1  -9 1261.18 341.599   5
 -14   1  -9 925.111 338.272   4
 -14  -1  -9 936.590 430.422   4
 -14   1  -8 30050.1 1946.30   4
 -14  -1  -8 29221.2 2157.12   4
  14   1  -8 28552.9 1518.55   5
 -14   1  -7 13582.5 1420.31   4
 -14  -1  -7 12368.0 1527.24   4
  14   1  -7 12594.5 1069.46   5
 -14   1  -6 26944.9 2128.76   4
 -14  -1  -6 25892.6 2287.95   4
  14   1  -6 26370.4 1563.74   5
 -14   1  -5 1026.71 391.618   4
 -14  -1  -5 698.520 483.840   4
 -14   1  -4 28072.2 2276.43   7
 -14   1  -4 32384.2 2371.78   4
 -14  -1  -4 31003.0 2480.23   4
 -14   1  -3 23059.5 2003.18   7
 -14   1  -3 26920.8 2120.83   4
 -14  -1  -3 25201.2 2165.50   4
 -14  -1  -2 82825.3 3566.39   3
 -14   1  -2 90637.5 3200.14  18
 -14  -1  -2 82408.3 2950.52  18
 -14  -1  -2 82925.3 3532.72   7
 -14   1  -2 77659.4 3449.37   7
 -14   1  -2 85926.9 3684.35   4
 -14   1  -1 1765.60 457.311  18
 -14  -1  -1 971.412 346.634  18
 -14  -1  -1 1333.95 465.986   7
 -14   1  -1 867.781 386.471   7
 -14  -1  -1 1961.70 607.059   3
 -14   1   0 83726.3 2985.36  18
 -14  -1   0 88862.2 3203.53  18
 -14  -1   0 83666.4 3233.55   7
 -14   1   0 84260.8 3329.74   7
 -14  -1   0 85927.1 3572.39   3
 -14  -1   0 79997.5 2824.56  11
 -14   1   1 2520.33 535.911  18
 -14  -1   1 2281.48 546.274  18
 -14  -1   1 1353.46 415.998   7
 -14   1   1 981.483 399.038   7
 -14  -1   1 3071.06 708.239  12
 -14  -1   1 1236.77 405.424  11
 -14   1   2 83274.7 3056.26  18
 -14  -1   2 83053.6 3018.28   7
 -14   1   2 83524.6 3310.73   7
 -14  -1   2 83737.1 3137.40  11
 -14  -1   3 23114.6 1598.45   7
 -14   1   3 26438.8 1891.68   7
 -14  -1   3 25388.3 1752.75  11
 -14  -1   4 33322.5 1906.45   7
 -14   1   4 36610.4 2230.48   7
 -14  -1   4 34994.1 2058.88  11
 -14  -1   5 186.929 262.365   7
 -14   1   5 1158.12 444.420   7
 -14  -1   5 1111.84 463.548  11
  14  -1   5 1539.58 606.609   6
 -14  -1   6 23776.6 1547.91   7
 -14   1   6 22706.2 1703.53   7
  14  -1   6 21681.0 2106.02   6
 -14  -1   6 23467.2 1664.40  11
 -14  -1   7 12724.9 1091.68   7
 -14   1   7 12584.6 1225.98   7
  14  -1   7 13172.3 1565.87   6
 -14  -1   7 12732.1 1195.04  11
 -14  -1   8 31890.0 1564.62   7
 -14   1   8 32988.1 1856.01   7
  14  -1   8 31145.4 2125.54   6
 -14  -1   8 33449.0 1799.14  11
 -14   1   9 1228.27 405.686   7
 -14  -1   9 1051.61 314.447  11
  14  -1   9 949.857 311.314   6
 -14   1  10 21504.4 1187.91   7
 -14  -1  10 20134.9 987.313  11
 -14   1  11 139.547 123.713   7
 -14  -2 -10 6760.91 540.200   4
 -14  -2  -9 713.452 307.672   4
 -14  -2  -8 35801.5 2040.41   4
 -14  -2  -7 3856.01 906.686   3
 -14  -2  -7 2607.03 670.853   4
 -14  -2  -6 4042.46 1053.86   3
 -14  -2  -6 4803.93 932.899   4
 -14  -2  -5 8254.75 1277.54   3
 -14  -2  -5 6788.29 1156.92   4
 -14  -2  -4 29281.2 2363.92   3
 -14  -2  -4 30058.1 2357.52   4
 -14  -2  -3 9230.83 1319.12   3
 -14   2  -3 7359.32 1157.99   7
 -14  -2  -3 8767.88 1295.74   4
 -14  -2  -3 12405.6 1469.19  12
 -14  -2  -2 22806.8 2043.51   3
 -14   2  -2 25101.7 2007.59   7
 -14  -2  -2 23967.5 1937.18  12
 -14  -2  -2 22874.2 2014.93   4
 -14   2  -1 914.498 411.856   7
 -14  -2  -1 736.529 484.909  12
 -14  -2  -1 974.654 491.450   3
 -14   2   0 10341.1 1215.22   7
 -14  -2   0 9367.37 1321.25   3
 -14  -2   0 8142.09 1101.60  12
 -14   2   1 789.134 383.438   7
 -14  -2   1 578.649 387.273  12
 -14  -2   1 966.787 335.320  11
 -14  -2   1 463.214 391.879   3
 -14   2   2 23676.6 1779.15   7
 -14  -2   2 25545.0 1796.24  12
 -14  -2   2 27147.3 1727.66  11
 -14   2   3 8282.28 1068.12   7
  14  -2   3 9024.37 1430.94   6
 -14  -2   3 7882.44 979.731  11
 -14   2   4 30839.0 2007.95   7
  14  -2   4 32352.1 2622.84   6
 -14  -2   4 29048.7 1847.69  11
 -14   2   5 6410.60 929.831   7
 -14  -2   5 6719.44 888.131  11
  14  -2   5 6570.61 1198.09   6
 -14   2   6 5180.80 813.981   7
 -14  -2   6 4398.23 719.183  11
  14  -2   6 4752.06 1031.91   6
 -14   2   7 3520.09 645.990   7
 -14  -2   7 3878.47 658.999  11
  14  -2   7 3615.90 834.541   6
 -14   2   8 33340.2 1722.19   7
  14  -2   8 33751.0 2156.72   6
 -14  -2   8 32311.4 1667.19  11
 -14   2   9 745.558 290.698   7
 -14  -2   9 794.459 251.503  11
  14  -2   9 338.852 233.082   6
 -14   2  10 5746.72 517.725   7
 -14  -2  10 5404.94 458.945  11
  14  -3  -9 841.024 213.261  15
  14  -3  -8 78785.2 2324.85  15
 -14  -3  -7 1330.94 726.385   3
 -14  -3  -6 100890. 3853.41   3
 -14   3  -6 105264. 3247.15   8
 -14  -3  -6 100253. 3079.18   4
 -14  -3  -5 1606.13 867.252   3
 -14  -3  -5 362.210 259.874   4
 -14  -3  -4 107409. 4383.09   3
 -14  -3  -4 103670. 3686.58   4
 -14  -3  -3 4855.49 930.018  12
 -14  -3  -3 2533.33 835.631   3
 -14  -3  -3 2667.58 668.137   4
 -14  -3  -2 109344. 4545.92   3
 -14   3  -2 115049. 3964.84   7
 -14  -3  -2 109060. 3978.64   4
 -14  -3  -2 115054. 4089.19  12
 -14   3  -1-638.143 416.676   7
 -14  -3  -1-809.938 487.554  12
 -14  -3  -1-370.925 396.785   3
  14  -3  -1 809.648 362.209   6
 -14  -3  -1-139.642 265.783   4
 -14  -3   0 74719.9 3659.31   3
 -14   3   0 82338.7 3276.11   7
 -14  -3   0 76732.9 3301.28   4
 -14  -3   0 70767.5 3165.47  12
  14  -3   0 82959.6 3762.87   6
 -14   3   1 437.711 334.732   7
 -14  -3   1-672.556 407.412  12
 -14  -3   1 187.778 368.753   3
  14  -3   1 465.694 359.790   6
  14  -3   1-206.270 258.281  10
 -14   3   2 119164. 3738.40   7
 -14  -3   2 117897. 4410.88   3
 -14  -3   2 115698. 3749.21  12
  14  -3   2 114018. 4591.24   6
  14  -3   2 116155. 3983.00  10
 -14   3   3 3599.74 678.797   7
 -14  -3   3 3055.89 636.006  12
 -14  -3   3 2988.50 544.781  11
 -14  -3   3 3298.87 789.717   3
  14  -3   3 3563.92 877.851   6
  14  -3   3 2861.34 606.546  10
 -14   3   4 107617. 3347.86   7
 -14  -3   4 114277. 4126.07   3
  14  -3   4 110118. 4450.71   6
 -14  -3   4 106709. 3123.89  11
 -14   3   5 793.761 321.970   7
 -14  -3   5 325.355 251.647  11
  14  -3   5-281.143 359.017   6
 -14  -3   5 1269.18 474.193   3
 -14   3   6 96645.7 2846.61   7
 -14  -3   6 104177. 3510.52   3
  14  -3   6 104829. 3994.91   6
 -14  -3   6 103131. 2892.07  11
 -14   3   7 1215.63 310.825   7
 -14  -3   7 2009.17 406.273  11
  14  -3   7 1578.51 511.537   6
 -14  -3   7 2034.03 492.405   3
 -14   3   8 70014.2 1854.85   7
 -14  -3   8 72096.4 2271.89   3
  14  -3   8 76604.6 2679.31   6
 -14  -3   8 76635.9 2047.82  11
 -14  -3   9 622.065 170.131  11
  14  -3   9 578.789 185.982   6
  14  -4  -7 9012.47 591.490  15
  14  -4  -7 5184.69 493.443  10
 -14   4  -6 55029.1 1838.83   8
 -14  -4  -6 59183.0 2288.50   3
 -14  -4  -5 34904.0 2062.49   3
 -14   4  -5 31801.3 1639.09   8
  14  -4  -5 33165.9 1490.47  15
 -14  -4  -4 34302.8 2155.32   3
 -14   4  -4 33936.4 1876.02   8
  14  -4  -4 32335.5 1530.51  15
  14  -4  -3 2667.61 438.740  15
 -14  -4  -3 2771.62 769.108   3
 -14  -4  -2 48542.4 2674.53   3
 -14  -4  -2 48938.7 2283.88  12
  14  -4  -2 52917.1 2533.47  10
 -14  -4  -1 1382.45 578.711   3
 -14  -4  -1 2375.85 590.370  12
  14  -4  -1 2494.08 616.781  10
 -14  -4   0 24139.0 1892.54   3
 -14  -4   0 24276.8 1646.68  12
  14  -4   0 23746.5 1729.05  10
 -14  -4   1 1400.54 554.231   3
 -14  -4   1 1903.85 498.288  12
  14  -4   1 2875.19 616.910  10
 -14  -4   2 48764.7 2524.89   3
 -14  -4   2 46600.2 2098.02  12
  14  -4   2 44687.9 2222.71   6
  14  -4   2 46490.3 2301.65  10
 -14  -4   3 1194.18 355.084  12
 -14  -4   3 2472.16 624.146   3
  14  -4   3 2093.13 522.091   6
  14  -4   3 1758.37 441.710  10
 -14  -4   4 33296.1 1827.68   3
 -14  -4   4 34198.0 1451.45  12
  14  -4   4 34857.5 1912.68   6
  14  -4   4 31839.3 1613.97  10
 -14  -4   5 31896.8 1608.96   3
  14  -4   5 32958.5 1757.69   6
 -14  -4   6 58024.3 1812.03   3
  14  -4   6 65726.9 2221.21   6
  14  -4   7 7851.18 631.896   6
 -14   5  -2 3315.77 424.319   8
  14  -5  -2 2650.30 393.985  10
 -14   5  -1 602.723 205.799   8
 -14  -5  -1 1241.25 490.374   3
  14  -5  -1 854.227 257.830  10
 -14  -5   0 1062.46 288.273  12
  14  -5   0 207.216 155.166  10
 -14  -5   1 1563.66 312.429  12
  14  -5   1 665.444 212.504  10
 -14  -5   2 3805.58 385.584  12
  14  -5   2 2026.52 315.852  10
 -15   0 -10 90.9139 143.299   4
 -15   0  -9 202.314 245.695   4
 -15   0  -8 234.475 313.833   4
 -15   0  -7-850.189 491.800   4
 -15   0  -6 50.3932 263.053   4
 -15   0  -5-481.283 442.995   4
 -15   0  -4 79.3010 346.566   4
 -15   0  -3-546.723 384.151   7
 -15   0  -3 90.0391 259.430   4
 -15   0  -2 134.093 255.881   7
 -15   0  -2-63.0972 328.742   4
 -15   0  -1-116.100 274.553   7
 -15   0   0 210.162 245.930   7
 -15   0   1 605.123 359.509   7
 -15   0   2-23.1704 264.161   7
 -15   0   2-8.69423 183.627  11
 -15   0   3-274.495 274.508   7
 -15   0   3 736.152 363.590  11
 -15   0   4-364.407 313.699   7
 -15   0   4-189.488 286.706  11
 -15   0   5-464.569 324.105   7
 -15   0   5 121.771 229.269  11
  15   0   5 102.121 255.470   6
 -15   0   6 355.467 284.485   7
 -15   0   6 1114.76 426.949  11
 -15   0   7-121.992 209.886   7
 -15   0   7-35.1828 202.289  11
 -15   0   8 111.759 199.019   7
 -15   0   8-73.1247 161.174  11
 -15   0   9-217.612 248.218   7
 -15   0  10-135.612 137.389   7
 -15  -1 -10 35205.1 1401.30   4
 -15   1  -9 1172.92 321.467   4
 -15  -1  -9 960.315 382.260   4
 -15   1  -8 107732. 3260.72   4
 -15  -1  -8 103314. 3604.31   4
 -15   1  -7 7616.55 968.208   4
 -15  -1  -7 7225.08 1079.23   4
  15   1  -7 6511.78 686.083   5
 -15   1  -6 34966.7 2252.29   4
 -15  -1  -6 35429.7 2478.21   4
 -15   1  -5 5908.53 981.181   4
 -15  -1  -5 4547.38 978.615   4
 -15   1  -4 180570. 5389.68   4
 -15  -1  -4 178544. 5722.01   4
 -15   1  -3 18315.2 1766.14   7
 -15   1  -3 19623.8 1790.09   4
 -15  -1  -3 18845.0 1881.90   4
 -15  -1  -2 84410.9 3564.35   3
 -15  -1  -2 84857.5 3554.81   7
 -15   1  -2 75854.0 3444.88   7
 -15   1  -2 79392.1 3561.04   4
 -15  -1  -2 77842.7 3680.49   4
 -15  -1  -1 1701.00 521.550   7
 -15   1  -1 1231.95 514.542   7
 -15  -1  -1 2041.97 614.529   3
 -15   1  -1 2886.06 695.285   4
 -15  -1   0 115840. 3907.02   7
 -15   1   0 108043. 3886.28   7
 -15  -1   0 111746. 4083.51   3
 -15  -1   1 1928.52 447.376   7
 -15   1   1 1654.20 509.382   7
 -15  -1   1 1830.71 478.913  11
 -15  -1   1 2418.81 616.185   3
 -15  -1   2 84915.9 3132.89   7
 -15   1   2 86531.3 3419.99   7
 -15  -1   2 91159.5 3247.75  11
 -15  -1   3 18310.8 1429.28   7
 -15   1   3 19045.1 1619.92   7
 -15  -1   3 19887.4 1536.32  11
 -15  -1   4 170455. 4258.39   7
 -15   1   4 171536. 4760.22   7
  15  -1   4 185756. 6100.17   6
 -15  -1   4 172647. 4474.48  11
 -15  -1   5 5777.22 777.831   7
 -15   1   5 6191.35 906.111   7
 -15  -1   5 5933.51 829.244  11
  15  -1   5 5636.02 1069.07   6
 -15  -1   6 43549.1 1980.85   7
 -15   1   6 41454.2 2185.90   7
  15  -1   6 43436.4 2737.92   6
 -15  -1   6 41259.8 2093.81  11
 -15  -1   7 7493.24 772.902   7
 -15   1   7 8086.86 927.280   7
 -15  -1   7 7426.55 864.699  11
  15  -1   7 5661.27 942.906   6
 -15   1   8 98410.1 2929.42   7
  15  -1   8 92938.8 3225.39   6
 -15  -1   8 103584. 2904.43  11
 -15   1   9 1127.20 336.438   7
 -15  -1   9 1510.59 318.875  11
 -15   1  10 37227.6 1320.28   7
 -15  -2  -9 4275.66 509.670   4
 -15  -2  -8 105454. 3063.97   4
 -15  -2  -7 681.158 524.900   3
 -15  -2  -7 1299.35 469.997   4
 -15  -2  -6 89069.9 3444.45   3
 -15  -2  -6 89310.2 3565.20   4
 -15  -2  -5 3588.05 789.979   3
 -15  -2  -5 2879.43 718.326   4
 -15  -2  -4 62159.8 3192.05   3
 -15  -2  -4 61591.4 3229.66   4
 -15   2  -3-41.8252 285.595   7
 -15  -2  -3 250.686 451.747   3
 -15  -2  -3 10.7138 231.773   4
 -15  -2  -2 109383. 4326.45   3
 -15   2  -2 105866. 4072.12   7
 -15  -2  -2 110554. 4298.73   4
 -15   2  -1 3935.03 814.120   7
 -15  -2  -1 6462.24 1060.72  12
 -15  -2  -1 4457.43 943.922   3
 -15  -2  -1 4684.59 906.009   4
 -15  -2   0 121103. 4497.98   3
 -15   2   0 118817. 4101.80   7
 -15  -2   0 119417. 4002.66  12
 -15   2   1 5804.45 932.946   7
 -15  -2   1 5705.87 921.203  12
 -15  -2   1 5230.54 722.468  11
 -15  -2   1 5130.81 979.326   3
 -15   2   2 114267. 3896.34   7
 -15  -2   2 116044. 4420.19   3
 -15  -2   2 113387. 3633.43  12
 -15  -2   2 112713. 3418.79  11
 -15   2   3 995.791 439.332   7
 -15  -2   3 330.389 240.769  11
  15  -2   3 651.794 449.208   6
 -15   2   4 64587.7 2834.01   7
  15  -2   4 69345.3 3656.12   6
 -15  -2   4 61368.0 2551.43  11
 -15   2   5 2614.72 597.208   7
 -15  -2   5 2595.89 555.940  11
  15  -2   5 2287.69 736.972   6
 -15   2   6 89483.2 3021.37   7
  15  -2   6 89920.3 3818.20   6
 -15  -2   6 86828.4 2838.32  11
 -15   2   7 574.015 293.132   7
 -15  -2   7 870.949 339.020  11
  15  -2   7 1124.68 450.360   6
 -15   2   8 105621. 2785.42   7
  15  -2   8 105828. 3321.22   6
 -15  -2   8 106810. 2695.60  11
 -15   2   9 3815.52 472.315   7
  15  -2   9 3830.09 494.165   6
 -15  -2   9 4203.01 460.167  11
  15  -3  -8 2129.87 342.449  15
 -15  -3  -7 2296.65 641.151   3
 -15  -3  -6 5459.25 1046.07   3
 -15   3  -5 7298.70 859.346   8
 -15  -3  -5 7961.81 887.506   4
 -15  -3  -5 7882.28 1225.28   3
 -15  -3  -4 495.170 468.439   3
 -15  -3  -4 881.409 384.477   4
 -15  -3  -3 939.581 586.237   3
 -15  -3  -3 1705.40 519.826   4
 -15  -3  -2 913.457 417.592   3
 -15  -3  -2 1054.69 425.037   4
  15  -3  -2 1034.84 399.686   6
 -15   3  -1 6008.60 906.674   7
 -15  -3  -1 6265.18 920.628   4
 -15  -3  -1 6414.23 984.942  12
 -15  -3  -1 4501.20 953.610   3
  15  -3  -1 6251.44 976.340   6
 -15  -3   0 36041.0 2454.48   3
 -15   3   0 36937.0 2168.25   7
 -15  -3   0 34157.8 2107.48   4
 -15  -3   0 36862.8 2148.11  12
  15  -3   0 40153.1 2483.69   6
 -15   3   1 6683.25 918.005   7
 -15  -3   1 6308.39 882.156  12
 -15  -3   1 6231.49 904.074   4
  15  -3   1 6841.93 1064.88   6
 -15  -3   1 5299.70 995.919   3
  15  -3   1 6551.29 929.218  10
 -15   3   2 2093.00 519.025   7
 -15  -3   2 1838.39 482.415  12
 -15  -3   2 1583.37 571.120   3
  15  -3   2 1459.67 532.999   6
  15  -3   2 1828.47 506.752  10
 -15   3   3 1825.49 458.260   7
 -15  -3   3 1997.26 459.411  12
 -15  -3   3 1608.52 387.866  11
 -15  -3   3 1816.42 596.993   3
  15  -3   3 1593.90 552.125   6
 -15   3   4 740.441 352.293   7
 -15  -3   4 1205.90 352.573  11
 -15  -3   4 477.021 351.117   3
  15  -3   4 405.239 383.767   6
 -15   3   5 5880.56 725.357   7
 -15  -3   5 8237.18 1019.26   3
  15  -3   5 6770.34 1023.36   6
 -15  -3   5 6691.83 707.443  11
 -15   3   6 4433.32 577.945   7
 -15  -3   6 4199.56 692.132   3
 -15  -3   6 4655.05 566.703  11
  15  -3   6 4673.08 814.269   6
 -15   3   7 3367.61 438.206   7
  15  -3   7 4319.84 668.500   6
 -15  -3   7 4130.98 485.147  11
 -15  -3   7 3611.96 568.959   3
 -15  -3   8 1877.04 336.955   3
 -15  -3   8 1958.58 285.917  11
  15  -3   8 1901.70 368.202   6
  15  -4  -6 28687.0 1183.50  10
 -15  -4  -6 45250.7 1596.48   3
 -15   4  -5 2789.25 415.459   8
 -15  -4  -5 3503.82 763.146   3
  15  -4  -5 3079.14 366.844  15
  15  -4  -5 2834.98 451.834  10
 -15  -4  -4 51230.1 2318.21   3
 -15   4  -4 52842.8 2022.21   8
  15  -4  -4 51662.9 1580.30  15
  15  -4  -4 58448.1 2175.47  10
 -15  -4  -3 3230.69 727.255   3
  15  -4  -3 650.665 299.374  10
 -15  -4  -2 27264.9 1824.73   3
 -15  -4  -2 30012.1 1645.51  12
  15  -4  -2 29660.1 1717.08  10
 -15  -4  -1-808.401 476.133   3
  15  -4  -1 483.775 292.354  10
 -15  -4   0 42227.0 2281.38   3
 -15  -4   0 40099.7 1901.20  12
  15  -4   0 40409.6 2036.83  10
 -15  -4   1-9.87271 423.516   3
 -15  -4   1 546.681 316.852  12
  15  -4   1 365.825 252.756  10
 -15  -4   2 28089.1 1758.59   3
 -15  -4   2 26493.5 1411.90  12
  15  -4   2 27769.7 1566.58  10
 -15  -4   3 655.704 301.644   3
 -15  -4   3 958.819 309.658  12
  15  -4   3 664.014 277.046   6
  15  -4   3 946.021 272.039  10
 -15  -4   4 55463.7 2104.14   3
  15  -4   4 55692.7 2081.40   6
 -15  -4   5 2948.84 449.309   3
  15  -4   5 2958.77 471.430   6
 -16   0  -9 8290.64 764.912   4
 -16   0  -8 118580. 3406.74   4
 -16   0  -7 3783.15 728.271   4
 -16   0  -6 127224. 4316.06   4
 -16   0  -5 2720.69 717.684   4
 -16   0  -4 87894.9 3820.94   4
 -16   0  -3 38653.3 2494.34   7
 -16   0  -3 39254.0 2585.47   4
 -16   0  -2 237887. 6090.71   7
 -16   0  -2 239028. 6308.08   4
 -16   0  -1 3047.58 681.309   7
 -16   0  -1 3409.75 769.205   4
 -16   0   0 111693. 3988.53   7
 -16   0   1 1995.30 550.556   7
 -16   0   2 255032. 5760.89   7
 -16   0   3 40264.0 2270.69   7
 -16   0   4 78838.3 3086.55   7
 -16   0   4 74479.6 2877.38  11
 -16   0   5 2638.86 591.062   7
 -16   0   5 2682.86 572.784  11
  16   0   5 2911.86 720.156   6
 -16   0   6 132355. 3612.22   7
  16   0   6 123280. 3883.67   6
 -16   0   6 129811. 3551.06  11
 -16   0   7 3193.46 557.311   7
 -16   0   8 122003. 2906.70   7
 -16   0   9 7100.22 601.480   7
 -16   1  -9 649.385 161.112   4
 -16  -1  -9 1225.73 320.565   4
 -16   1  -8 44506.0 1798.14   4
 -16  -1  -8 43374.6 2033.56   4
 -16   1  -7 7643.00 880.276   4
 -16  -1  -7 8646.32 1068.07   4
 -16   1  -6 16432.3 1407.15   4
 -16  -1  -6 15317.0 1518.52   4
 -16   1  -5 9714.48 1158.03   4
 -16  -1  -5 9943.21 1320.46   4
 -16   1  -4 15250.5 1510.50   4
 -16  -1  -4 15571.0 1630.04   4
 -16   1  -3 294.699 368.042   7
 -16   1  -3-237.548 300.404   4
 -16  -1  -3-32.1091 311.527   4
 -16  -1  -2 65493.8 3047.85   7
 -16   1  -2 65863.2 3234.59   7
 -16   1  -2 70761.3 3303.60   4
 -16  -1  -2 63783.1 3308.94   4
 -16  -1  -1 4178.02 775.882   7
 -16   1  -1 3500.61 793.022   7
 -16  -1  -1 4028.18 793.598   3
 -16   1  -1 4310.88 886.378   4
 -16  -1   0 52409.6 2646.50   7
 -16  -1   0 53485.3 2796.15   3
 -16   1   0 52519.3 2760.56   7
 -16   1   0 58012.6 2935.20   4
 -16  -1   1 4259.27 757.742   7
 -16   1   1 4423.16 828.119   7
 -16  -1   1 5109.69 923.245   3
 -16  -1   2 76007.3 2969.63   7
 -16   1   2 76682.5 3255.17   7
 -16  -1   2 79836.6 3531.64   3
 -16  -1   2 71054.7 2819.72  11
 -16  -1   3-24.3336 168.618   7
 -16   1   3-460.170 344.311   7
 -16  -1   3 151.413 272.195  11
 -16  -1   4 17168.8 1314.74   7
 -16   1   4 17385.0 1484.73   7
  16  -1   4 18990.7 1881.69   6
 -16  -1   4 17178.2 1369.87  11
 -16  -1   5 9936.74 948.869   7
 -16   1   5 10138.8 1085.24   7
  16  -1   5 8854.79 1224.31   6
 -16  -1   5 9868.75 1014.43  11
 -16   1   6 12948.8 1160.90   7
  16  -1   6 12478.3 1375.50   6
 -16  -1   6 13309.1 1127.24  11
 -16   1   7 7634.16 845.820   7
  16  -1   7 8009.89 991.103   6
 -16  -1   7 8018.29 825.298  11
 -16   1   8 45323.0 1797.62   7
 -16  -1   8 46323.7 1742.60  11
 -16   1   9 1055.10 290.493   7
 -16  -2  -8 7634.43 714.423   4
 -16  -2  -7 754.801 326.516   4
 -16  -2  -6 11833.1 1186.79   4
 -16  -2  -6 13388.9 1239.14   3
 -16  -2  -5 6472.24 1023.81   3
 -16  -2  -5 5161.53 860.449   4
 -16  -2  -4 9207.51 1188.58   3
 -16  -2  -4 8713.33 1168.24   4
 -16  -2  -3 659.646 470.460   3
 -16  -2  -3 737.048 442.898   4
 -16  -2  -2 40694.2 2548.56   3
 -16   2  -2 41181.6 2485.11   7
 -16  -2  -2 40627.7 2541.18   4
 -16   2  -1 4007.72 824.370   7
 -16  -2  -1 3506.24 820.230   3
 -16  -2  -1 3933.94 807.621   4
 -16  -2   0 29172.9 2175.09   3
 -16   2   0 29659.4 2079.84   7
 -16   2   1 4322.01 808.868   7
 -16  -2   1 3276.37 788.647   3
 -16   2   2 40669.7 2315.63   7
 -16  -2   2 43774.6 2639.49   3
 -16  -2   2 39265.6 1938.47  11
 -16   2   3 766.009 405.853   7
 -16  -2   3 1070.36 395.297  11
 -16  -2   3 725.797 420.178   3
  16  -2   3 967.085 486.414   6
 -16   2   4 10147.9 1099.08   7
  16  -2   4 9875.20 1344.12   6
 -16  -2   4 10269.7 987.659  11
 -16   2   5 4130.20 669.496   7
 -16  -2   5 5364.46 695.272  11
  16  -2   5 4468.72 864.396   6
 -16   2   6 13312.6 1098.70   7
  16  -2   6 13753.8 1370.18   6
 -16  -2   6 14181.9 1063.25  11
 -16   2   7 488.674 257.731   7
 -16  -2   7 478.471 252.812  11
  16  -2   7 719.742 323.320   6
 -16   2   8 8666.88 717.512   7
  16  -2   8 9097.99 822.822   6
 -16  -2   8 9371.13 702.249  11
 -16   2   9 80.9287 100.941   7
 -16  -2   9 252.131 138.784   3
  16  -3  -7 1356.14 277.584  15
 -16  -3  -6 53528.3 2107.02   3
 -16  -3  -5 2004.12 764.258   3
 -16  -3  -4 69256.4 2921.52   3
 -16  -3  -4 67662.5 2431.74   4
 -16  -3  -3 10.0076 419.863   3
 -16  -3  -3 613.522 324.531   4
 -16  -3  -2 69618.0 3188.61   3
 -16  -3  -2 67613.9 2730.20   4
  16  -3  -2 66252.3 2711.15   6
 -16   3  -1 1847.63 496.642   7
 -16  -3  -1 1145.15 458.516   3
  16  -3  -1 2562.81 593.228   6
 -16  -3  -1 2177.83 572.675   4
 -16  -3   0 155367. 4776.85   3
 -16   3   0 161042. 4262.05   7
 -16  -3   0 154205. 4201.17   4
 -16  -3   0 142885. 3863.77  12
  16  -3   0 152792. 4500.41   6
  16  -3   0 167285. 4346.69  10
 -16   3   1 1897.78 510.636   7
 -16  -3   1 3389.00 672.690  12
 -16  -3   1 1981.39 601.259   3
  16  -3   1 1805.31 570.287   6
  16  -3   1 1952.42 475.318  10
 -16  -3   1 1691.90 506.197   4
 -16  -3   2 69563.4 3078.46   3
 -16   3   2 71642.8 2697.85   7
 -16  -3   2 69315.5 2451.12  12
 -16  -3   2 68115.3 2694.48   4
  16  -3   2 69000.3 3127.05   6
 -16   3   3 400.008 232.428   7
 -16  -3   3 627.853 378.110   3
  16  -3   3 352.668 338.538   6
 -16  -3   4 71498.3 2846.99   3
 -16   3   4 67321.9 2363.99   7
  16  -3   4 68303.8 2972.04   6
 -16  -3   4 65230.5 1955.66  11
 -16   3   5 940.705 273.654   7
 -16  -3   5 1086.27 283.095  11
 -16  -3   5 1284.99 391.974   3
  16  -3   5 920.129 396.445   6
 -16   3   6 55315.1 1753.42   7
 -16  -3   6 58952.6 2187.60   3
  16  -3   6 62459.2 2427.40   6
 -16  -3   6 57412.5 1648.42  11
 -16  -3   7 1374.11 308.708   3
 -16  -3   7 1176.52 220.402  11
  16  -3   7 1336.33 323.922   6
  16  -4  -5 77.1674 85.9205  10
 -16   4  -4 7851.57 625.101   8
  16  -4  -4 8797.90 719.798  10
 -16   4  -3 3892.45 512.209   8
 -16  -4  -3 3244.11 735.661   3
  16  -4  -3 3735.02 519.922  10
 -16  -4  -2 33449.6 1786.58   3
  16  -4  -2 34256.9 1600.52  10
 -16  -4  -1 1817.96 516.062   3
  16  -4  -1 1600.43 380.155  10
 -16  -4   0 20181.3 1416.80   3
  16  -4   0 20992.1 1269.35  10
 -16  -4   1 897.096 381.338   3
  16  -4   1 1947.51 409.043  10
 -16  -4   2 31251.0 1643.87   3
  16  -4   2 23711.6 1157.40  10
 -16  -4   3 3235.55 536.675   3
 -16  -4   4 10296.6 788.594   3
 -17   0  -9 191.699 125.627   4
 -17   0  -8-134.367 166.802   4
 -17   0  -7-387.185 273.687   4
 -17   0  -6 77.6772 272.952   4
 -17   0  -5-82.4908 286.673   4
 -17   0  -4-411.202 388.391   4
 -17   0  -3-14.7661 279.552   4
 -17   0  -2 111.925 346.940   7
 -17   0  -2 314.983 341.396   4
 -17   0  -1-120.066 279.932   7
 -17   0  -1 367.529 349.350   4
 -17   0   0 258.676 251.769   7
 -17   0   1 222.291 300.499   7
 -17   0   2 387.274 314.741   7
 -17   0   3-2.57211 236.455   7
 -17   0   4-364.522 284.419   7
  17   0   4 553.188 319.064   6
 -17   0   5-612.403 321.384   7
  17   0   5 51.1292 123.415   6
 -17   0   6 168.995 209.755   7
 -17   0   7-86.3769 241.452   7
 -17   0   8-64.7320 160.588   7
 -17  -1  -9 6665.70 512.408   4
 -17   1  -8 34092.0 1193.01   4
 -17  -1  -8 41550.8 1692.38   4
 -17   1  -7 4530.30 573.548   4
 -17  -1  -7 3848.63 648.675   4
 -17   1  -6 31416.0 1722.29   4
 -17  -1  -6 29183.9 1857.59   4
 -17   1  -5 1022.03 391.240   4
 -17  -1  -5 257.727 321.928   4
 -17   1  -4 97970.7 3509.92   4
 -17  -1  -4 92809.4 3717.96   4
 -17   1  -3 3305.47 769.868   7
 -17   1  -3 2718.66 632.351   4
 -17  -1  -3 3039.94 748.422   4
 -17   1  -2 36477.6 2371.93   7
 -17   1  -2 39099.5 2347.35   4
 -17  -1  -2 36355.3 2420.45   4
 -17  -1  -1 7232.92 974.333   7
 -17   1  -1 8023.38 1127.74   7
 -17   1  -1 8116.99 1107.36   4
 -17  -1  -1 7879.30 1148.99   4
 -17  -1   0 100849. 3721.97   3
 -17  -1   0 92231.4 3429.09   7
 -17   1   0 94863.4 3718.06   7
 -17   1   0 104055. 3814.80   4
 -17  -1   1 8651.80 1034.74   7
 -17   1   1 8810.02 1138.45   7
 -17  -1   1 9228.75 1162.32   3
 -17  -1   2 32054.6 1875.40   7
 -17   1   2 35113.6 2190.13   7
 -17  -1   2 35753.6 2248.00   3
 -17  -1   3 3193.60 580.278   7
 -17   1   3 3339.25 670.266   7
 -17  -1   3 4295.70 821.833   3
  17  -1   3 3590.16 849.497   6
 -17  -1   4 97809.9 2960.17   7
 -17   1   4 97167.5 3337.70   7
  17  -1   4 101333. 3963.94   6
 -17  -1   4 90565.7 2944.90  11
 -17   1   5 939.284 371.509   7
 -17  -1   5 1073.01 371.774  11
  17  -1   5 988.255 461.225   6
 -17   1   6 30690.2 1629.34   7
  17  -1   6 29113.5 1852.74   6
 -17  -1   6 29628.5 1519.72  11
 -17   1   7 3858.18 557.532   7
  17  -1   7 4233.22 633.987   6
 -17  -1   7 3640.95 501.292  11
 -17   1   8 39443.3 1490.45   7
 -17  -2  -7 213.615 168.669   4
 -17  -2  -6 36167.9 1783.05   4
 -17  -2  -5 3752.71 747.618   3
 -17  -2  -5 3681.24 665.583   4
 -17  -2  -4 59246.7 2581.93   3
 -17  -2  -4 58272.8 2695.70   4
 -17  -2  -3 878.605 458.769   3
 -17  -2  -3 938.839 437.673   4
 -17  -2  -2 120418. 4088.39   3
 -17   2  -2 120740. 4029.83   7
 -17  -2  -2 117362. 4091.44   4
 -17   2  -1 5600.01 925.375   7
 -17  -2  -1 5715.34 945.323   3
 -17  -2  -1 5372.31 943.957   4
 -17  -2   0 42053.1 2483.28   3
 -17   2   0 46441.0 2528.55   7
 -17  -2   0 42101.1 2477.63   4
 -17  -2   1 6274.04 998.665   3
 -17   2   1 6411.54 967.264   7
 -17   2   2 127935. 3962.63   7
 -17  -2   2 124028. 4167.77   3
  17  -2   2 136179. 4740.47   6
 -17   2   3 790.084 355.867   7
 -17  -2   3 1604.93 391.423  11
 -17  -2   3 927.858 416.715   3
  17  -2   3 1203.31 535.926   6
 -17   2   4 55197.9 2367.09   7
 -17  -2   4 62173.2 2776.60   3
  17  -2   4 58320.7 2899.86   6
 -17  -2   4 53471.7 2032.87  11
 -17   2   5 3322.23 573.380   7
 -17  -2   5 3585.81 525.712  11
 -17  -2   5 3313.46 644.508   3
  17  -2   5 3131.38 663.294   6
 -17   2   6 40057.7 1719.29   7
 -17  -2   6 43696.8 2028.15   3
  17  -2   6 38556.4 2014.78   6
 -17  -2   6 38594.0 1548.64  11
 -17   2   7-103.254 149.468   7
 -17  -2   7 184.823 166.935  11
  17  -2   7 201.130 176.430   6
 -17  -2   7 108.842 198.181   3
 -17   2   8 58829.4 1535.78   7
 -17  -2   8 60313.2 1725.96   3
  17  -3  -6 10588.2 666.866  15
 -17  -3  -5 1484.57 568.146   3
 -17  -3  -4 1302.53 633.176   3
 -17  -3  -3 603.517 425.866   3
 -17  -3  -2 4975.24 670.300   4
 -17  -3  -2 4811.45 810.106   3
 -17  -3  -1 267.526 433.281   3
  17  -3  -1 966.349 336.523   6
 -17  -3  -1 135.387 192.163   4
  17  -3  -1 534.727 278.516  10
 -17   3   0 2977.29 566.846   7
 -17  -3   0 2645.81 634.276   3
  17  -3   0 3259.84 624.915   6
 -17  -3   0 2820.35 567.129   4
  17  -3   0 2724.61 497.529  10
 -17   3   1 336.858 267.610   7
 -17  -3   1 601.083 364.692   3
  17  -3   1 770.864 358.462   6
 -17  -3   1 547.496 253.809   4
 -17  -3   2 6696.11 897.135   3
 -17   3   2 6218.71 747.708   7
 -17  -3   2 6042.42 747.376   4
  17  -3   2 6720.68 897.423   6
 -17   3   3 174.861 179.442   7
 -17  -3   3 297.913 290.235   3
  17  -3   3-141.023 256.942   6
 -17  -3   3 228.926 254.353   4
 -17   3   4 1738.04 367.544   7
 -17  -3   4 2056.75 460.537   3
  17  -3   4 2282.23 512.601   6
 -17   3   5 418.456 187.760   7
 -17  -3   5 933.609 317.241   3
  17  -3   5 753.681 318.789   6
 -17  -3   6 10843.5 805.327   3
  17  -3   6 10562.2 839.977   6
 -17  -4  -3 1279.55 459.042   3
 -17  -4  -2 18956.3 1155.23   3
 -17   4  -2 16796.5 889.332   8
 -17  -4  -1 2530.51 492.737   3
  17  -4  -1 884.740 228.298  10
 -17  -4   0 51110.7 1887.89   3
 -17  -4   1 1286.30 357.036   3
 -17  -4   2 19432.0 1078.57   3
 -18   0  -8 52383.6 1521.93   4
 -18   0  -7 10184.1 849.722   4
 -18   0  -6 93079.2 2938.26   4
 -18   0  -5 5156.33 783.651   4
 -18   0  -4 90653.3 3409.91   4
 -18   0  -3 6898.79 1020.79   4
 -18   0  -2 69870.5 3067.63   7
 -18   0  -2 70213.2 3203.15   4
 -18   0  -1 47953.8 2585.26   7
 -18   0  -1 52247.3 2791.13   4
 -18   0   0 235315. 5665.01   7
 -18   0   0 260889. 6212.62   4
 -18   0   1 50226.8 2558.18   7
 -18   0   2 78927.1 3097.16   7
 -18   0   3 7619.04 940.115   7
 -18   0   4 92327.4 2990.55   7
  18   0   4 93038.7 3354.69   6
 -18   0   5 6051.65 746.304   7
  18   0   5 5928.21 765.417   6
 -18   0   6 98592.2 2601.48   7
 -18   0   7 8801.68 689.077   7
 -18  -1  -8 27077.6 1070.68   4
 -18  -1  -7 861.098 284.077   4
 -18   1  -6 26088.8 1301.39   4
 -18  -1  -6 25967.8 1541.51   4
 -18   1  -5 2784.95 509.014   4
 -18  -1  -5 2609.25 556.507   4
 -18   1  -4 22082.9 1490.43   4
 -18  -1  -4 20480.2 1625.33   4
 -18   1  -3 4340.98 728.096   4
 -18  -1  -3 5166.86 870.162   4
 -18   1  -2 20034.3 1667.44   7
 -18   1  -2 20151.5 1565.99   4
 -18  -1  -2 20555.4 1763.81   4
 -18   1  -1 4286.99 854.912   7
 -18   1  -1 2998.87 638.112   4
 -18  -1  -1 2963.97 737.085   4
 -18  -1   0 28829.4 1804.90   7
 -18   1   0 33651.9 2168.28   7
 -18   1   0 31056.0 1989.55   4
 -18  -1   0 32747.2 2238.99   4
 -18  -1   1 3162.73 612.188   7
 -18   1   1 2898.17 692.347   7
 -18  -1   1 2065.53 519.033   3
 -18   1   1 2706.42 595.506   4
 -18  -1   2 21599.5 1477.99   7
 -18  -1   2 23835.4 1693.26   3
 -18   1   2 22010.1 1657.96   7
 -18   1   2 22990.5 1624.12   4
 -18   1   3 4937.25 786.496   7
 -18  -1   3 5808.62 840.269   3
  18  -1   3 5183.03 892.523   6
 -18   1   4 23227.0 1532.21   7
 -18  -1   4 24369.8 1614.59   3
  18  -1   4 25759.0 1840.94   6
 -18   1   5 1944.91 451.978   7
 -18  -1   5 2152.93 493.783   3
  18  -1   5 2164.09 523.869   6
 -18   1   6 24088.4 1310.47   7
 -18  -1   6 26674.5 1466.03   3
  18  -1   6 23661.7 1420.04   6
 -18   1   7 724.908 242.392   7
  18  -1   7 925.932 234.486   6
 -18  -1   7 1227.62 303.738   3
 -18   1   8 26784.4 992.206   7
 -18  -2  -6 12446.0 883.866   4
 -18  -2  -5 11408.6 970.651   4
 -18  -2  -4 17064.6 1304.62   4
 -18  -2  -3 2470.36 549.690   3
 -18  -2  -3 1565.43 479.748   4
 -18  -2  -2 12867.9 1226.61   3
 -18  -2  -2 13530.2 1289.83   4
 -18   2  -1 829.105 405.396   7
 -18  -2  -1 1151.98 436.301   3
 -18  -2  -1 815.180 389.606   4
 -18  -2   0 21247.0 1644.09   3
 -18   2   0 22001.2 1654.86   7
 -18  -2   0 21759.4 1677.85   4
 -18   2   1 540.082 332.790   7
 -18  -2   1 960.169 412.669   3
  18  -2   1 998.598 451.944   6
 -18  -2   1 1195.48 482.639   4
 -18  -2   2 13287.0 1265.13   3
 -18   2   2 13264.3 1223.40   7
  18  -2   2 14900.4 1487.25   6
 -18   2   3 1881.99 475.439   7
 -18  -2   3 1926.16 521.896   3
  18  -2   3 1873.20 561.298   6
 -18   2   4 15816.8 1164.08   7
 -18  -2   4 16397.3 1293.94   3
  18  -2   4 17805.7 1448.20   6
 -18   2   5 9993.21 856.980   7
 -18  -2   5 11597.3 1008.10   3
  18  -2   5 11762.2 1089.09   6
 -18   2   6 13771.3 890.447   7
 -18  -2   6 14393.3 995.385   3
  18  -2   6 13853.7 1025.34   6
 -18   2   7 151.711 120.124   7
 -18  -2   7 311.572 147.746   3
  18  -3  -4 37477.7 1369.69  10
 -18  -3  -4 40975.7 1550.61   3
 -18  -3  -3 3287.42 586.375   3
  18  -3  -3 2309.15 375.469  10
 -18  -3  -2 66300.1 2424.88   3
  18  -3  -2 54619.4 1819.06  10
 -18  -3  -1 1205.42 397.649   3
 -18  -3   0 62649.2 2493.37   3
  18  -3   0 57212.8 2154.54   6
 -18   3   1 1446.56 339.713   7
 -18  -3   1 1387.40 425.477   3
  18  -3   1 2185.36 471.252   6
 -18  -3   2 71591.0 2523.95   3
 -18   3   2 64586.0 2052.18   7
  18  -3   2 66677.4 2384.59   6
 -18   3   3 1652.86 322.824   7
 -18  -3   3 2467.38 469.730   3
  18  -3   3 2340.89 453.220   6
 -18  -3   4 50467.4 1853.99   3
  18  -3   4 48866.7 1864.87   6
 -18  -3   5 500.883 199.697   3
  18  -3   5 637.050 225.855   6
 -19   0  -7-16.5144 72.0829   4
 -19   0  -6-31.3212 139.807   4
 -19   0  -5-12.6403 137.474   4
 -19   0  -4 6.47797 197.421   4
 -19   0  -3 98.2418 259.924   4
 -19   0  -2 387.315 305.894   4
 -19   0  -1 325.020 321.119   7
 -19   0  -1 213.621 256.797   4
 -19   0   0 423.990 304.155   7
 -19   0   0-274.717 286.823   4
 -19   0   1 176.174 284.949   7
 -19   0   1-17.2220 216.350   4
 -19   0   2-78.3105 253.618   7
 -19   0   3 93.7664 234.686   7
  19   0   3-85.3631 227.200   6
 -19   0   4-102.405 271.380   7
  19   0   4 18.7733 108.461   6
 -19   0   5-322.819 219.774   7
 -19   0   6-91.8056 149.066   7
 -19  -1  -7 3193.27 372.395   4
 -19  -1  -6 45536.7 1712.47   4
 -19  -1  -5 3727.36 576.844   4
 -19   1  -4 63091.3 2101.67   4
 -19  -1  -4 65297.2 2562.23   4
 -19   1  -3 6190.08 729.609   4
 -19  -1  -3 6285.17 871.787   4
 -19   1  -2 21571.4 1427.45   4
 -19  -1  -2 20809.3 1612.83   4
 -19   1  -1 4414.48 780.828   7
 -19  -1  -1 5507.17 883.517   4
 -19   1  -1 4433.68 677.095   4
 -19   1   0 84901.8 3227.06   7
 -19   1   0 84467.4 2889.63   4
 -19  -1   0 87392.6 3371.22   4
 -19   1   1 4376.81 775.397   7
 -19   1   1 3979.36 633.632   4
 -19  -1   1 4364.44 792.576   4
 -19  -1   2 23718.5 1466.10   3
 -19   1   2 22699.3 1576.64   7
 -19   1   2 21441.0 1380.77   4
  19  -1   2 25427.1 1867.92   6
 -19  -1   3 6396.83 729.311   3
 -19   1   3 5819.40 771.890   7
 -19   1   3 6771.90 725.776   4
  19  -1   3 7579.11 974.385   6
 -19  -1   4 70880.2 2293.37   3
 -19   1   4 65127.8 2310.28   7
  19  -1   4 68312.3 2642.46   6
 -19   1   5 3643.38 524.666   7
 -19  -1   5 3373.83 488.531   3
  19  -1   5 3477.20 548.624   6
 -19  -1   6 39815.0 1361.89   3
 -19   1   6 41446.5 1483.42   7
 -19  -2  -5 1680.28 341.317   4
 -19  -2  -4 43032.2 1744.92   4
 -19  -2  -3 682.751 316.654   4
  19  -2  -3 983.382 329.475   6
 -19  -2  -2 67266.1 2267.76   3
 -19  -2  -2 67973.3 2536.95   4
  19  -2  -2 73154.7 2672.42   6
 -19  -2  -1-759.992 345.713   3
  19  -2  -1 296.745 256.537   6
 -19  -2  -1-158.748 391.017   4
 -19  -2   0 47243.5 2117.04   3
 -19   2   0 48211.5 2196.82   7
 -19  -2   0 49299.1 2253.11   4
  19  -2   0 51359.4 2422.94   6
 -19   2   1-866.614 344.368   7
 -19  -2   1-918.134 378.016   3
  19  -2   1 299.896 313.102   6
 -19  -2   1 74.7326 278.735   4
 -19  -2   2 70926.4 2511.78   3
 -19   2   2 67498.9 2445.74   7
 -19  -2   2 70914.0 2579.25   4
  19  -2   2 70604.5 2798.95   6
 -19   2   3 362.688 244.950   7
 -19  -2   3 590.965 276.765   3
  19  -2   3 358.709 258.337   6
 -19  -2   3 583.283 302.457   4
 -19  -2   4 47223.1 1823.85   3
 -19   2   4 47071.2 1762.36   7
  19  -2   4 48506.7 2037.83   6
 -19   2   5 1809.91 327.221   7
 -19  -2   5 1709.08 324.143   3
  19  -2   5 2024.53 384.702   6
 -19  -3  -1 1262.54 339.866   3
 -19  -3   0 53.6564 210.921   3
 -19  -3   1 470.650 216.188   3
  19  -3   1 777.055 221.358   6
 -19  -3   2 2359.81 387.871   3
  19  -3   2 2326.00 370.183   6
 -19  -3   3 4553.72 490.595   3
 -20   0  -5 1777.57 332.928   4
 -20   0  -4 51928.9 1934.48   4
 -20   0  -3 1641.70 415.689   4
 -20   0  -2 92815.5 2961.71   4
 -20   0  -1 34277.4 1858.68   4
 -20   0   0 68013.6 2509.98   7
 -20   0   0 69485.5 2656.57   4
 -20   0   1 34254.5 1751.34   7
 -20   0   1 36361.0 1888.14   4
 -20   0   2 81922.3 2583.43   7
 -20   0   2 87620.9 2802.50   4
  20   0   2 88425.4 2987.73   6
 -20   0   3 1961.61 415.947   7
  20   0   3 1838.26 377.267   6
 -20   0   3 1873.78 418.189   4
 -20   0   4 47023.2 1640.98   7
 -20   0   4 49216.8 1805.50   4
 -20   0   5 1838.99 318.202   4
 -20  -1  -5 1815.82 346.622   4
 -20  -1  -4 22892.2 1285.55   4
 -20  -1  -3 553.164 280.290   4
 -20  -1  -2 25483.0 1566.13   4
 -20  -1  -1 4967.02 752.816   4
 -20   1   0 19015.2 1369.89   7
 -20  -1   0 19437.4 1424.83   4
 -20   1   1 5804.08 767.125   7
 -20  -1   1 5342.07 764.091   4
  20  -1   1 6790.57 903.966   6
 -20   1   2 23553.3 1416.86   7
 -20  -1   2 23414.7 1470.48   4
  20  -1   2 22206.1 1528.85   6
 -20   1   3 341.139 232.218   7
  20  -1   3 478.316 252.730   6
 -20  -1   3 321.869 228.830   4
 -20   1   4 21540.8 1150.10   7
 -20  -1   4 23278.8 1262.97   4
  20  -1   4 21576.9 1246.33   6
 -20   1   5 1378.70 285.753   7
 -20  -1   5 1573.37 312.007   4
 -20  -2  -3 2799.96 421.600   4
 -20  -2  -2 8885.30 781.855   4
  20  -2  -2 7165.85 680.904   6
 -20  -2  -1 1542.38 381.645   4
  20  -2  -1 1411.05 352.600   6
  20  -2   0-95.8475 171.569   6
 -20  -2   0-347.716 232.529   4
 -20   2   1 1388.45 337.958   7
 -20  -2   1 318.507 164.857   3
  20  -2   1 1645.41 399.634   6
 -20  -2   1 1458.32 371.931   4
 -20   2   2 6655.84 657.410   7
 -20  -2   2 8186.67 750.491   4
  20  -2   2 8504.57 816.271   6
 -20   2   3 2061.05 341.515   7
  20  -2   3 2338.24 417.979   6
 -20  -2   3 2356.00 391.351   4
 -20   2   4 7921.60 579.296   7
  20  -2   4 6807.17 604.297   6
 -21   0  -3-20.2288 104.936   4
 -21   0  -2 164.208 167.727   4
 -21   0  -1 26.7439 103.383   4
 -21   0   0-298.096 174.774   4
  21   0   1 196.961 191.267   6
 -21   0   1-511.846 217.372   4
  21   0   2 135.390 134.273   6
 -21   0   2-24.1513 111.594   4
 -21   0   3-216.133 110.764   4
 -21  -1  -3 1809.98 324.343   4
  21  -1  -3 1275.71 284.549   6
 -21  -1  -2 20730.6 1149.99   4
  21  -1  -2 20302.2 1183.59   6
 -21  -1  -1 3032.17 482.588   4
  21  -1  -1 3013.41 503.355   6
 -21  -1   0 120778. 2902.66   4
  21  -1   0 122356. 3048.48   6
  21  -1   1 2782.42 475.726   6
 -21  -1   1 2713.41 443.329   4
 -21   1   2 18986.1 1024.22   7
 -21  -1   2 20562.3 1125.42   4
  21  -1   2 20481.4 1157.44   6
 -21   1   3 1458.50 276.265   7
  21  -1   3 1082.03 257.605   6
 -21  -1   3 1304.49 281.959   4
   0   0   0    0.00    0.00   0

TITL jmwtf57 in Pca2(1)
REM Pca2(1) (#29, found as Pc2(1)b in cab setting)
CELL 1.54184  17.341601   5.317736  11.645494  90.0000  90.0000  90.0000
ZERR    2.00   0.000575   0.000143   0.000314   0.0000   0.0000   0.0000
LATT -1
SYMM -x,-y, z+1/2
SYMM  x+1/2,-y, z
SYMM -x+1/2, y, z+1/2
SFAC C H N O Se
UNIT 38.00 24.00 8.00 2.00 2.00
TREF
HKLF 4
END
;
_shelx_hkl_checksum   29809

